<?xml version="1.0" encoding="UTF-8"?>

<!-- generated on Thu Mar  4 13:21:40 2021 by Eclipse SUMO duarouter Version 1.8.0
<configuration xmlns:xsi="http://www.w3.org/2001/XMLSchema-instance" xsi:noNamespaceSchemaLocation="http://sumo.dlr.de/xsd/duarouterConfiguration.xsd">

    <input>
        <net-file value="/home/dreamlab-student/sumo-iisc/2021-03-04-13-20-05/osm.net.xml"/>
        <route-files value="/home/dreamlab-student/sumo-iisc/2021-03-04-13-20-05/osm.passenger.trips.xml"/>
    </input>

    <output>
        <output-file value="/home/dreamlab-student/sumo-iisc/2021-03-04-13-20-05/osm.passenger.trips.xml.tmp"/>
        <write-trips value="true"/>
    </output>

    <time>
        <begin value="0"/>
        <end value="3600"/>
    </time>

    <report>
        <no-warnings value="true"/>
        <ignore-errors value="true"/>
        <no-step-log value="true"/>
    </report>

</configuration>
-->

<routes xmlns:xsi="http://www.w3.org/2001/XMLSchema-instance" xsi:noNamespaceSchemaLocation="http://sumo.dlr.de/xsd/routes_file.xsd">
    <vType id="veh_passenger" vClass="passenger"/>
    <trip id="veh0" type="veh_passenger" depart="0.00" departLane="best" from="310355984#0" to="-147545799"/>
    <trip id="veh1" type="veh_passenger" depart="0.33" departLane="best" from="-38767903#3" to="-383935508#1"/>
    <trip id="veh2" type="veh_passenger" depart="0.66" departLane="best" from="38322524#2" to="36897655#8"/>
    <trip id="veh3" type="veh_passenger" depart="0.99" departLane="best" from="53258233#1" to="-213042787#2"/>
    <trip id="veh4" type="veh_passenger" depart="1.31" departLane="best" from="132907562#3" to="-169536718#0"/>
    <trip id="veh5" type="veh_passenger" depart="1.64" departLane="best" from="-37763924#2" to="212996223"/>
    <trip id="veh6" type="veh_passenger" depart="1.97" departLane="best" from="-154340364#5" to="-36907537"/>
    <trip id="veh7" type="veh_passenger" depart="2.30" departLane="best" from="328357781#2" to="213068032#0"/>
    <trip id="veh8" type="veh_passenger" depart="2.63" departLane="best" from="-380412454#0" to="23078226#1"/>
    <trip id="veh9" type="veh_passenger" depart="2.96" departLane="best" from="38770977#0" to="-112028497#1"/>
    <trip id="veh10" type="veh_passenger" depart="3.29" departLane="best" from="38770946#1" to="36907531#1"/>
    <trip id="veh11" type="veh_passenger" depart="3.61" departLane="best" from="-52639353#0" to="-251492658#4"/>
    <trip id="veh12" type="veh_passenger" depart="3.94" departLane="best" from="763175333#0" to="-52243623"/>
    <trip id="veh13" type="veh_passenger" depart="4.27" departLane="best" from="4354953#0" to="23082237#1"/>
    <trip id="veh14" type="veh_passenger" depart="4.60" departLane="best" from="38770952#2" to="37763921#0"/>
    <trip id="veh15" type="veh_passenger" depart="4.93" departLane="best" from="213057068#5" to="768487034"/>
    <trip id="veh16" type="veh_passenger" depart="5.26" departLane="best" from="-767326470#1" to="213087110"/>
    <trip id="veh17" type="veh_passenger" depart="5.58" departLane="best" from="401993919#0" to="239572010#0"/>
    <trip id="veh18" type="veh_passenger" depart="5.91" departLane="best" from="464465205#0" to="23075565#7"/>
    <trip id="veh19" type="veh_passenger" depart="6.24" departLane="best" from="36907560#2" to="-175391973#3"/>
    <trip id="veh20" type="veh_passenger" depart="6.57" departLane="best" from="-38540576#1" to="-38770977#0"/>
    <trip id="veh21" type="veh_passenger" depart="6.90" departLane="best" from="-213027170#1" to="-38541471#1"/>
    <trip id="veh22" type="veh_passenger" depart="7.23" departLane="best" from="-213065284#0" to="-38767923#2"/>
    <trip id="veh23" type="veh_passenger" depart="7.56" departLane="best" from="28137491#2" to="-674028948#1"/>
    <trip id="veh24" type="veh_passenger" depart="7.88" departLane="best" from="-692806743#0" to="-36958830#0"/>
    <trip id="veh25" type="veh_passenger" depart="8.21" departLane="best" from="-38762872#0" to="685490716#0"/>
    <trip id="veh26" type="veh_passenger" depart="8.54" departLane="best" from="326200328#1" to="23133647#1"/>
    <trip id="veh27" type="veh_passenger" depart="8.87" departLane="best" from="-326137676#1" to="37763917#1"/>
    <trip id="veh28" type="veh_passenger" depart="9.20" departLane="best" from="-285367759#3" to="-780991633#1"/>
    <trip id="veh30" type="veh_passenger" depart="9.86" departLane="best" from="217536617" to="36897669#3"/>
    <trip id="veh31" type="veh_passenger" depart="10.18" departLane="best" from="411092287#1" to="38757929#3"/>
    <trip id="veh32" type="veh_passenger" depart="10.51" departLane="best" from="-38540580#5" to="-169709320#1"/>
    <trip id="veh33" type="veh_passenger" depart="10.84" departLane="best" from="-410858853" to="-38762880#0"/>
    <trip id="veh34" type="veh_passenger" depart="11.17" departLane="best" from="-37106518#1" to="694323953"/>
    <trip id="veh35" type="veh_passenger" depart="11.50" departLane="best" from="49687769#2" to="-410858856#3"/>
    <trip id="veh36" type="veh_passenger" depart="11.83" departLane="best" from="334578516#1" to="105317881#2"/>
    <trip id="veh37" type="veh_passenger" depart="12.16" departLane="best" from="59358745" to="169711278"/>
    <trip id="veh38" type="veh_passenger" depart="12.48" departLane="best" from="-38762866#9" to="-38541558#1"/>
    <trip id="veh39" type="veh_passenger" depart="12.81" departLane="best" from="224618934#8" to="-38762863"/>
    <trip id="veh40" type="veh_passenger" depart="13.14" departLane="best" from="23076955#4" to="54603567"/>
    <trip id="veh41" type="veh_passenger" depart="13.47" departLane="best" from="107215088#0" to="-37763933"/>
    <trip id="veh42" type="veh_passenger" depart="13.80" departLane="best" from="98169407" to="213016792"/>
    <trip id="veh43" type="veh_passenger" depart="14.13" departLane="best" from="-213056998#2" to="-175391981"/>
    <trip id="veh44" type="veh_passenger" depart="14.46" departLane="best" from="-213087086#1" to="26284183#11"/>
    <trip id="veh45" type="veh_passenger" depart="14.78" departLane="best" from="38767894#6" to="133467629"/>
    <trip id="veh46" type="veh_passenger" depart="15.11" departLane="best" from="-212987583#0" to="-796880321"/>
    <trip id="veh47" type="veh_passenger" depart="15.44" departLane="best" from="98168261#0" to="213047570"/>
    <trip id="veh48" type="veh_passenger" depart="15.77" departLane="best" from="766406229#2" to="462585138#1"/>
    <trip id="veh49" type="veh_passenger" depart="16.10" departLane="best" from="-112994275#10" to="37111253#19"/>
    <trip id="veh50" type="veh_passenger" depart="16.43" departLane="best" from="36897665#0" to="213057068#0"/>
    <trip id="veh51" type="veh_passenger" depart="16.75" departLane="best" from="-38762871#1" to="310355985#0"/>
    <trip id="veh52" type="veh_passenger" depart="17.08" departLane="best" from="-213087111#2" to="147545771#2"/>
    <trip id="veh53" type="veh_passenger" depart="17.41" departLane="best" from="169536718#3" to="763175323#1"/>
    <trip id="veh54" type="veh_passenger" depart="17.74" departLane="best" from="49687767#6" to="-38762866#11"/>
    <trip id="veh55" type="veh_passenger" depart="18.07" departLane="best" from="212987569#1" to="-36332257#1"/>
    <trip id="veh56" type="veh_passenger" depart="18.40" departLane="best" from="56121819#1" to="48876320"/>
    <trip id="veh57" type="veh_passenger" depart="18.73" departLane="best" from="-38771643#4" to="289700708#1"/>
    <trip id="veh58" type="veh_passenger" depart="19.05" departLane="best" from="23134706#15" to="-23515292#13"/>
    <trip id="veh59" type="veh_passenger" depart="19.38" departLane="best" from="38541547#1" to="213057085#4"/>
    <trip id="veh60" type="veh_passenger" depart="19.71" departLane="best" from="38757936#1" to="213047585"/>
    <trip id="veh61" type="veh_passenger" depart="20.04" departLane="best" from="-105317908#1" to="-473959560#1"/>
    <trip id="veh62" type="veh_passenger" depart="20.37" departLane="best" from="-143182735#1" to="638928392#0"/>
    <trip id="veh63" type="veh_passenger" depart="20.70" departLane="best" from="49688787#1" to="40629040#3"/>
    <trip id="veh64" type="veh_passenger" depart="21.03" departLane="best" from="-393699922#0" to="-208745497#2"/>
    <trip id="veh65" type="veh_passenger" depart="21.35" departLane="best" from="49688784#0" to="730431933"/>
    <trip id="veh66" type="veh_passenger" depart="21.68" departLane="best" from="-213042774" to="175392013#1"/>
    <trip id="veh67" type="veh_passenger" depart="22.01" departLane="best" from="-213016781#1" to="38541540#0"/>
    <trip id="veh68" type="veh_passenger" depart="22.34" departLane="best" from="38541572#2" to="-23076825#4"/>
    <trip id="veh69" type="veh_passenger" depart="22.67" departLane="best" from="172937190#3" to="213072312#7"/>
    <trip id="veh70" type="veh_passenger" depart="23.00" departLane="best" from="-38762867#1" to="492441116#1"/>
    <trip id="veh71" type="veh_passenger" depart="23.33" departLane="best" from="132907568#3" to="-37111253#1"/>
    <trip id="veh72" type="veh_passenger" depart="23.65" departLane="best" from="213065262" to="37763921#3"/>
    <trip id="veh73" type="veh_passenger" depart="23.98" departLane="best" from="-36907544" to="-40629053#2"/>
    <trip id="veh74" type="veh_passenger" depart="24.31" departLane="best" from="98168233#1" to="327550407#5"/>
    <trip id="veh75" type="veh_passenger" depart="24.64" departLane="best" from="150357930#2" to="213027150#1"/>
    <trip id="veh76" type="veh_passenger" depart="24.97" departLane="best" from="-23004005#2" to="-38540559#5"/>
    <trip id="veh77" type="veh_passenger" depart="25.30" departLane="best" from="-52639291#1" to="23078195#4"/>
    <trip id="veh78" type="veh_passenger" depart="25.62" departLane="best" from="-38540588#1" to="-38042634#4"/>
    <trip id="veh79" type="veh_passenger" depart="25.95" departLane="best" from="-213016871#0" to="27946046#2"/>
    <trip id="veh80" type="veh_passenger" depart="26.28" departLane="best" from="-38540580#4" to="55343468#2"/>
    <trip id="veh81" type="veh_passenger" depart="26.61" departLane="best" departSpeed="max" from="464465170#0" to="-213016872#0"/>
    <trip id="veh82" type="veh_passenger" depart="26.94" departLane="best" from="-38541495#0" to="36853146#0"/>
    <trip id="veh83" type="veh_passenger" depart="27.27" departLane="best" from="-37339308#3" to="-23078241#5"/>
    <trip id="veh84" type="veh_passenger" depart="27.60" departLane="best" from="639010020#1" to="23029715#0"/>
    <trip id="veh85" type="veh_passenger" depart="27.92" departLane="best" from="172903807#2" to="38762873#0"/>
    <trip id="veh86" type="veh_passenger" depart="28.25" departLane="best" from="38770955#3" to="-36897688#2"/>
    <trip id="veh87" type="veh_passenger" depart="28.58" departLane="best" from="-213057070#1" to="143182751#2"/>
    <trip id="veh88" type="veh_passenger" depart="28.91" departLane="best" from="133632532#4" to="172891301"/>
    <trip id="veh89" type="veh_passenger" depart="29.24" departLane="best" from="377247641#1" to="36884366"/>
    <trip id="veh90" type="veh_passenger" depart="29.57" departLane="best" from="798307134#1" to="-213057085#1"/>
    <trip id="veh91" type="veh_passenger" depart="29.90" departLane="best" from="111867011#4" to="-52736010#1"/>
    <trip id="veh92" type="veh_passenger" depart="30.22" departLane="best" from="464465205#0" to="-38541574#2"/>
    <trip id="veh93" type="veh_passenger" depart="30.55" departLane="best" from="-36897677#4" to="164042292#2"/>
    <trip id="veh94" type="veh_passenger" depart="30.88" departLane="best" from="132907562#3" to="-38767925#0"/>
    <trip id="veh95" type="veh_passenger" depart="31.21" departLane="best" from="-38541578#1" to="638541497#11"/>
    <trip id="veh96" type="veh_passenger" depart="31.54" departLane="best" from="154340361#6" to="464465170#1"/>
    <trip id="veh97" type="veh_passenger" depart="31.87" departLane="best" from="213087098#1" to="-175392012#2"/>
    <trip id="veh98" type="veh_passenger" depart="32.20" departLane="best" from="99452388#16" to="410858835"/>
    <trip id="veh99" type="veh_passenger" depart="32.52" departLane="best" from="765169660#1" to="638541497#21"/>
    <trip id="veh100" type="veh_passenger" depart="32.85" departLane="best" from="437169586#2" to="-310356033#1"/>
    <trip id="veh101" type="veh_passenger" depart="33.18" departLane="best" from="175392015#0" to="-37339764#0"/>
    <trip id="veh102" type="veh_passenger" depart="33.51" departLane="best" from="111867006" to="-212982992#1"/>
    <trip id="veh103" type="veh_passenger" depart="33.84" departLane="best" from="-768239885" to="820141176#0"/>
    <trip id="veh104" type="veh_passenger" depart="34.17" departLane="best" from="169536942#7" to="133632534#3"/>
    <trip id="veh105" type="veh_passenger" depart="34.50" departLane="best" from="763175333#2" to="98168240#1"/>
    <trip id="veh106" type="veh_passenger" depart="34.82" departLane="best" from="217536599" to="370403491"/>
    <trip id="veh107" type="veh_passenger" depart="35.15" departLane="best" from="-251492658#1" to="-38771640#3"/>
    <trip id="veh108" type="veh_passenger" depart="35.48" departLane="best" from="765169658#1" to="23076215#5"/>
    <trip id="veh109" type="veh_passenger" depart="35.81" departLane="best" from="213068005#6" to="38541469#1"/>
    <trip id="veh110" type="veh_passenger" depart="36.14" departLane="best" from="-207477320#1" to="23076921#2"/>
    <trip id="veh111" type="veh_passenger" depart="36.47" departLane="best" from="212987584#1" to="454483792#0"/>
    <trip id="veh112" type="veh_passenger" depart="36.79" departLane="best" from="-26284183#13" to="763293418#4"/>
    <trip id="veh113" type="veh_passenger" depart="37.12" departLane="best" from="-213027170#5" to="-36897663#4"/>
    <trip id="veh114" type="veh_passenger" depart="37.45" departLane="best" from="23081595#5" to="36885144"/>
    <trip id="veh115" type="veh_passenger" depart="37.78" departLane="best" from="-38541476#3" to="-23001158#1"/>
    <trip id="veh116" type="veh_passenger" depart="38.11" departLane="best" from="53064739#0" to="-38541555#0"/>
    <trip id="veh117" type="veh_passenger" depart="38.44" departLane="best" from="23081574#0" to="239572011#1"/>
    <trip id="veh118" type="veh_passenger" depart="38.77" departLane="best" from="132047069" to="23076886#3"/>
    <trip id="veh119" type="veh_passenger" depart="39.09" departLane="best" from="213036160#1" to="639010022#2"/>
    <trip id="veh120" type="veh_passenger" depart="39.42" departLane="best" from="-36907559#2" to="36967442#2"/>
    <trip id="veh121" type="veh_passenger" depart="39.75" departLane="best" from="-38541498#4" to="105317881#4"/>
    <trip id="veh122" type="veh_passenger" depart="40.08" departLane="best" from="36882313#0" to="-38772795#6"/>
    <trip id="veh123" type="veh_passenger" depart="40.41" departLane="best" from="-410858858#1" to="38541484#8"/>
    <trip id="veh124" type="veh_passenger" depart="40.74" departLane="best" from="-213016933#0" to="169711264"/>
    <trip id="veh125" type="veh_passenger" depart="41.07" departLane="best" from="98402109#6" to="98168261#0"/>
    <trip id="veh126" type="veh_passenger" depart="41.39" departLane="best" from="-213022607#10" to="-37339308#1"/>
    <trip id="veh127" type="veh_passenger" depart="41.72" departLane="best" from="-38762867#3" to="638929150#5"/>
    <trip id="veh128" type="veh_passenger" depart="42.05" departLane="best" from="-688824192#1" to="-27946046#3"/>
    <trip id="veh129" type="veh_passenger" depart="42.38" departLane="best" from="40629046#1" to="36907549#5"/>
    <trip id="veh130" type="veh_passenger" depart="42.71" departLane="best" from="23515292#14" to="8680571#7"/>
    <trip id="veh131" type="veh_passenger" depart="43.04" departLane="best" from="331691773" to="-112380254"/>
    <trip id="veh132" type="veh_passenger" depart="43.37" departLane="best" from="36257667#6" to="688446491#1"/>
    <trip id="veh133" type="veh_passenger" depart="43.69" departLane="best" from="-23081414#1" to="-217536598"/>
    <trip id="veh134" type="veh_passenger" depart="44.02" departLane="best" from="-213072297#0" to="217529695"/>
    <trip id="veh135" type="veh_passenger" depart="44.35" departLane="best" from="-38767888#5" to="23082258#3"/>
    <trip id="veh136" type="veh_passenger" depart="44.68" departLane="best" from="370390351#13" to="-36907559#3"/>
    <trip id="veh137" type="veh_passenger" depart="45.01" departLane="best" from="28126801#4" to="-38762866#9"/>
    <trip id="veh138" type="veh_passenger" depart="45.34" departLane="best" from="175392025#6" to="55343468#0"/>
    <trip id="veh140" type="veh_passenger" depart="45.99" departLane="best" from="133632532#4" to="-38767920#4"/>
    <trip id="veh141" type="veh_passenger" depart="46.32" departLane="best" from="-111867013#0" to="38757904#4"/>
    <trip id="veh142" type="veh_passenger" depart="46.65" departLane="best" departSpeed="max" from="289700708#0" to="-38762857#2"/>
    <trip id="veh143" type="veh_passenger" depart="46.98" departLane="best" from="38540558#9" to="213087100#2"/>
    <trip id="veh144" type="veh_passenger" depart="47.31" departLane="best" from="142487538" to="-112657835#2"/>
    <trip id="veh145" type="veh_passenger" depart="47.64" departLane="best" from="-213022647#1" to="52032727"/>
    <trip id="veh146" type="veh_passenger" depart="47.96" departLane="best" from="55343034#16" to="213068034#4"/>
    <trip id="veh147" type="veh_passenger" depart="48.29" departLane="best" from="40629052#0" to="23076833#8"/>
    <trip id="veh148" type="veh_passenger" depart="48.62" departLane="best" from="-23132765#1" to="-23076485#4"/>
    <trip id="veh149" type="veh_passenger" depart="48.95" departLane="best" from="-401908503" to="553250887"/>
    <trip id="veh150" type="veh_passenger" depart="49.28" departLane="best" from="38767920#20" to="462585137"/>
    <trip id="veh151" type="veh_passenger" depart="49.61" departLane="best" departSpeed="max" from="546764512" to="-370403491"/>
    <trip id="veh152" type="veh_passenger" depart="49.94" departLane="best" from="-38541574#2" to="-213068010"/>
    <trip id="veh153" type="veh_passenger" depart="50.26" departLane="best" from="38758716" to="52033011#9"/>
    <trip id="veh154" type="veh_passenger" depart="50.59" departLane="best" from="112028496#0" to="244304928#3"/>
    <trip id="veh155" type="veh_passenger" depart="50.92" departLane="best" from="-23515739#0" to="638928392#5"/>
    <trip id="veh156" type="veh_passenger" depart="51.25" departLane="best" from="46728567#2" to="780991643#1"/>
    <trip id="veh157" type="veh_passenger" depart="51.58" departLane="best" from="38770988#1" to="508197004#0"/>
    <trip id="veh158" type="veh_passenger" depart="51.91" departLane="best" from="-147545794#3" to="383935330#2"/>
    <trip id="veh159" type="veh_passenger" depart="52.24" departLane="best" from="-49687766#2" to="638928394"/>
    <trip id="veh160" type="veh_passenger" depart="52.56" departLane="best" from="38770899#1" to="464465205#8"/>
    <trip id="veh161" type="veh_passenger" depart="52.89" departLane="best" from="38770988#1" to="-38762873#8"/>
    <trip id="veh162" type="veh_passenger" depart="53.22" departLane="best" from="38762879" to="-213072310#1"/>
    <trip id="veh163" type="veh_passenger" depart="53.55" departLane="best" from="491106117#3" to="461556542#5"/>
    <trip id="veh164" type="veh_passenger" depart="53.88" departLane="best" from="-38322524#2" to="38771644#4"/>
    <trip id="veh165" type="veh_passenger" depart="54.21" departLane="best" from="169711285#4" to="-38773830#1"/>
    <trip id="veh166" type="veh_passenger" depart="54.54" departLane="best" from="38767920#1" to="-38540578#1"/>
    <trip id="veh167" type="veh_passenger" depart="54.86" departLane="best" from="-147545771#1" to="-36907510#12"/>
    <trip id="veh168" type="veh_passenger" depart="55.19" departLane="best" from="-48557534#1" to="464465211#0"/>
    <trip id="veh169" type="veh_passenger" depart="55.52" departLane="best" from="764571643#1" to="-38767928#2"/>
    <trip id="veh170" type="veh_passenger" depart="55.85" departLane="best" from="310356039" to="111867007#4"/>
    <trip id="veh171" type="veh_passenger" depart="56.18" departLane="best" from="797860565" to="213057063#0"/>
    <trip id="veh172" type="veh_passenger" depart="56.51" departLane="best" from="688410990#0" to="-217536597"/>
    <trip id="veh173" type="veh_passenger" depart="56.83" departLane="best" from="766406227#2" to="-36332257#0"/>
    <trip id="veh174" type="veh_passenger" depart="57.16" departLane="best" from="764329019#0" to="-38762870#2"/>
    <trip id="veh175" type="veh_passenger" depart="57.49" departLane="best" from="-213072310#0" to="147545769#2"/>
    <trip id="veh176" type="veh_passenger" depart="57.82" departLane="best" from="376491419#4" to="-410858848"/>
    <trip id="veh177" type="veh_passenger" depart="58.15" departLane="best" from="23133111#9" to="213016872#1"/>
    <trip id="veh178" type="veh_passenger" depart="58.48" departLane="best" from="-797910463" to="23060963#4"/>
    <trip id="veh179" type="veh_passenger" depart="58.81" departLane="best" from="-38757907#4" to="36913434#4"/>
    <trip id="veh180" type="veh_passenger" depart="59.13" departLane="best" from="-111867006" to="638541497#19"/>
    <trip id="veh181" type="veh_passenger" depart="59.46" departLane="best" from="213065231" to="37110887#7"/>
    <trip id="veh182" type="veh_passenger" depart="59.79" departLane="best" from="38540561#1" to="36882310#7"/>
    <trip id="veh183" type="veh_passenger" depart="60.12" departLane="best" from="-638929150#12" to="-213016836#1"/>
    <trip id="veh184" type="veh_passenger" depart="60.45" departLane="best" from="36332257#1" to="-49686052#2"/>
    <trip id="veh185" type="veh_passenger" depart="60.78" departLane="best" from="-410858828" to="437169584#1"/>
    <trip id="veh186" type="veh_passenger" depart="61.11" departLane="best" from="37110887#8" to="-38772797#1"/>
    <trip id="veh187" type="veh_passenger" depart="61.43" departLane="best" from="-401993947#0" to="112380266#0"/>
    <trip id="veh188" type="veh_passenger" depart="61.76" departLane="best" from="111867011#1" to="-38771634#7"/>
    <trip id="veh189" type="veh_passenger" depart="62.09" departLane="best" from="-23076215#4" to="132907559#1"/>
    <trip id="veh190" type="veh_passenger" depart="62.42" departLane="best" from="688644877#1" to="36897656#18"/>
    <trip id="veh191" type="veh_passenger" depart="62.75" departLane="best" from="55343030#9" to="239441160#0"/>
    <trip id="veh192" type="veh_passenger" depart="63.08" departLane="best" from="-38772795#4" to="213072298#1"/>
    <trip id="veh193" type="veh_passenger" depart="63.41" departLane="best" from="-105317881#4" to="-38770950#3"/>
    <trip id="veh194" type="veh_passenger" depart="63.73" departLane="best" from="143182743#0" to="23076732#3"/>
    <trip id="veh195" type="veh_passenger" depart="64.06" departLane="best" from="332394783" to="172845858#1"/>
    <trip id="veh196" type="veh_passenger" depart="64.39" departLane="best" from="154340361#0" to="-37339308#4"/>
    <trip id="veh197" type="veh_passenger" depart="64.72" departLane="best" from="172903814#1" to="55343030#5"/>
    <trip id="veh198" type="veh_passenger" depart="65.05" departLane="best" from="38767920#2" to="-324371662#19"/>
    <trip id="veh199" type="veh_passenger" depart="65.38" departLane="best" from="-213036174#0" to="213022647#1"/>
    <trip id="veh200" type="veh_passenger" depart="65.71" departLane="best" from="28126587#6" to="-49712543#2"/>
    <trip id="veh201" type="veh_passenger" depart="66.03" departLane="best" from="38771646#4" to="38541482"/>
    <trip id="veh202" type="veh_passenger" depart="66.36" departLane="best" from="36884366" to="-38540559#5"/>
    <trip id="veh203" type="veh_passenger" depart="66.69" departLane="best" from="-36907535#3" to="-147545792#2"/>
    <trip id="veh204" type="veh_passenger" depart="67.02" departLane="best" from="-38541536#7" to="172937188#0"/>
    <trip id="veh205" type="veh_passenger" depart="67.35" departLane="best" from="442014342" to="-213016933#7"/>
    <trip id="veh207" type="veh_passenger" depart="68.00" departLane="best" from="-36907510#3" to="36907522"/>
    <trip id="veh208" type="veh_passenger" depart="68.33" departLane="best" from="207477321#5" to="-38541536#7"/>
    <trip id="veh209" type="veh_passenger" depart="68.66" departLane="best" from="334578518#1" to="-111879327#6"/>
    <trip id="veh210" type="veh_passenger" depart="68.99" departLane="best" from="38541474" to="38757900#2"/>
    <trip id="veh211" type="veh_passenger" depart="69.32" departLane="best" from="-213072288" to="138980166#2"/>
    <trip id="veh212" type="veh_passenger" depart="69.65" departLane="best" from="-334578516#1" to="763284659"/>
    <trip id="veh213" type="veh_passenger" depart="69.98" departLane="best" from="213027164#0" to="-175392011#0"/>
    <trip id="veh214" type="veh_passenger" depart="70.30" departLane="best" from="-38541572#2" to="437169586#2"/>
    <trip id="veh215" type="veh_passenger" depart="70.63" departLane="best" from="169709320#2" to="38770902#1"/>
    <trip id="veh216" type="veh_passenger" depart="70.96" departLane="best" from="36853145#2" to="8681388#3"/>
    <trip id="veh217" type="veh_passenger" depart="71.29" departLane="best" from="23081608#2" to="759364433"/>
    <trip id="veh218" type="veh_passenger" depart="71.62" departLane="best" from="53258229#0" to="23443806#2"/>
    <trip id="veh219" type="veh_passenger" depart="71.95" departLane="best" from="37110887#1" to="212987587#6"/>
    <trip id="veh220" type="veh_passenger" depart="72.28" departLane="best" from="401993947#1" to="213072298#0"/>
    <trip id="veh221" type="veh_passenger" depart="72.60" departLane="best" from="544759838#1" to="38540578#2"/>
    <trip id="veh222" type="veh_passenger" depart="72.93" departLane="best" from="172937188#2" to="-38757938#1"/>
    <trip id="veh223" type="veh_passenger" depart="73.26" departLane="best" from="-38541555#2" to="28449770#1"/>
    <trip id="veh224" type="veh_passenger" depart="73.59" departLane="best" from="38541572#1" to="213032007"/>
    <trip id="veh225" type="veh_passenger" depart="73.92" departLane="best" from="263812623#2" to="-38767913#0"/>
    <trip id="veh226" type="veh_passenger" depart="74.25" departLane="best" from="-213027152#1" to="-38770946#1"/>
    <trip id="veh227" type="veh_passenger" depart="74.58" departLane="best" from="-38767886#5" to="-429123155#1"/>
    <trip id="veh228" type="veh_passenger" depart="74.90" departLane="best" from="213065277#0" to="-23081621#4"/>
    <trip id="veh229" type="veh_passenger" depart="75.23" departLane="best" from="-38540594#1" to="36907507#6"/>
    <trip id="veh230" type="veh_passenger" depart="75.56" departLane="best" from="36907573#10" to="-212987587#5"/>
    <trip id="veh231" type="veh_passenger" depart="75.89" departLane="best" from="112243683#2" to="213065293#3"/>
    <trip id="veh232" type="veh_passenger" depart="76.22" departLane="best" from="126774193#1" to="-369295567#1"/>
    <trip id="veh233" type="veh_passenger" depart="76.55" departLane="best" from="132191814#5" to="55343463#2"/>
    <trip id="veh234" type="veh_passenger" depart="76.87" departLane="best" from="462585104#0" to="38541583"/>
    <trip id="veh235" type="veh_passenger" depart="77.20" departLane="best" from="-778869464#0" to="-112028480"/>
    <trip id="veh236" type="veh_passenger" depart="77.53" departLane="best" from="-55343465" to="38541497#2"/>
    <trip id="veh238" type="veh_passenger" depart="78.19" departLane="best" from="131388427#6" to="38541465#2"/>
    <trip id="veh239" type="veh_passenger" depart="78.52" departLane="best" from="213068037#7" to="23082180#3"/>
    <trip id="veh240" type="veh_passenger" depart="78.85" departLane="best" from="147545795#2" to="-167854065#11"/>
    <trip id="veh241" type="veh_passenger" depart="79.17" departLane="best" from="-49712542#2" to="36897657#9"/>
    <trip id="veh242" type="veh_passenger" depart="79.50" departLane="best" from="111867013#3" to="-310355985#0"/>
    <trip id="veh243" type="veh_passenger" depart="79.83" departLane="best" from="172891304" to="-23076732#2"/>
    <trip id="veh244" type="veh_passenger" depart="80.16" departLane="best" from="26283603#10" to="-162697329#2"/>
    <trip id="veh245" type="veh_passenger" depart="80.49" departLane="best" from="-98168264#0" to="23004004#2"/>
    <trip id="veh246" type="veh_passenger" depart="80.82" departLane="best" from="-162697329#3" to="310356037#1"/>
    <trip id="veh247" type="veh_passenger" depart="81.15" departLane="best" from="-23081496#0" to="170931277#2"/>
    <trip id="veh248" type="veh_passenger" depart="81.47" departLane="best" from="-175392010#1" to="-778869464#1"/>
    <trip id="veh249" type="veh_passenger" depart="81.80" departLane="best" from="-37110887#3" to="-48166762#9"/>
    <trip id="veh250" type="veh_passenger" depart="82.13" departLane="best" from="38541536#4" to="-778869464#1"/>
    <trip id="veh251" type="veh_passenger" depart="82.46" departLane="best" from="38541478#3" to="40629043#0"/>
    <trip id="veh252" type="veh_passenger" depart="82.79" departLane="best" from="-38757899#1" to="-213036144"/>
    <trip id="veh253" type="veh_passenger" depart="83.12" departLane="best" from="-143182733#3" to="213057085#4"/>
    <trip id="veh254" type="veh_passenger" depart="83.45" departLane="best" from="99452388#8" to="-55343462#4"/>
    <trip id="veh255" type="veh_passenger" depart="83.77" departLane="best" from="328357782#3" to="38762864"/>
    <trip id="veh256" type="veh_passenger" depart="84.10" departLane="best" from="328836685#9" to="38541501#0"/>
    <trip id="veh257" type="veh_passenger" depart="84.43" departLane="best" from="758944897" to="-36907540#0"/>
    <trip id="veh258" type="veh_passenger" depart="84.76" departLane="best" from="-143182745#1" to="-23134709#1"/>