<?xml version="1.0" encoding="UTF-8"?>
<!-- generated on 2021-03-04 13:20:48.411004 by $Id: ptlines2flows.py v1_3_1+0313-ccb31df3eb jakob.erdmann@dlr.de 2019-09-02 13:26:32 +0200 $ UNKNOWN
  options: 
-->
<routes xmlns:xsi="http://www.w3.org/2001/XMLSchema-instance" xsi:noNamespaceSchemaLocation="http://sumo.dlr.de/xsd/routes_file.xsd">
    <vType id="pt_bus" vClass="bus"/>
    <vType id="pt_tram" vClass="tram"/>
    <vType id="pt_train" vClass="rail"/>
    <vType id="pt_subway" vClass="rail_urban"/>
    <vType id="pt_light_rail" vClass="rail_urban"/>
    <vType id="pt_monorail" vClass="rail"/>
    <vType id="pt_trolleybus" vClass="bus"/>
    <vType id="pt_aerialway" vClass="bus"/>
    <vType id="pt_ferry" vClass="ship"/>
    <route id="pt_bus_406:0" edges="498554151" >
        <stop busStop="3755675146" duration="30.00" until="54.0"/> <!-- Kempegowda Bus Station -->
    </route>
    <route id="pt_train_Rajdhani_Express:_Delhi_=_Bengaluru:0" edges="53861698#0 53861698#1 53861698#2" >
        <stop busStop="806588789" duration="30.00" until="31.0"/> <!-- Bangalore City Junction -->
    </route>
    <route id="pt_bus_340:0" edges="759364436" >
        <stop busStop="1323690429" duration="30.00" until="40.0"/> <!-- Makkala Koota -->
    </route>
    <route id="pt_train_Chennai_-_Mysuru_Shatabdi_Express:0" edges="53861699#0" >
        <stop busStop="806588782" duration="30.00" until="82.0"/> <!-- Bangalore City Junction -->
    </route>
    <route id="pt_train_Rajdhani_Express:_Bengaluru_=_Delhi:0" edges="372083762#0 372083762#1" >
        <stop busStop="806588796" duration="30.00" until="90.0"/> <!-- Bangalore City Junction -->
    </route>
    <route id="pt_bus_104:0" edges="31235676" >
        <stop busStop="2398074914" duration="30.00" until="83.0"/> <!-- Kempegowda Bus Station -->
    </route>
    <route id="pt_bus_90E:0" edges="580772059 163560246 498550660 402911911 760493329 760493330 454483792#0 454483792#1 36884366 372018380 139141579#0 139141579#1 580771983 36957700#0 36957700#1 36957700#2 363454313" >
        <stop busStop="2398074914@5598563" duration="30.00" until="31.0"/> <!-- Kempegowda Bus Station -->
    </route>
    <route id="pt_bus_108B:0" edges="31235676" >
        <stop busStop="2398074914" duration="30.00" until="114.0"/> <!-- Kempegowda Bus Station -->
    </route>
    <route id="pt_bus_55B:0" edges="190144809#0 190144809#2 190144809#4 454013128 172891296 -767326471 -36885143#10 -36885143#9 -36885143#8 -36885143#7 -36885143#6 -36885143#5 -36885143#4 -36885143#3 -36885143#2 -36885143#1 -36885143#0 -525778225#1 -525778225#0 -162581479 -36958313#1 -36958313#0" >
        <stop busStop="2007574677" duration="30.00" until="31.0"/> <!-- KR Market -->
        <stop busStop="-2402196851" duration="30.00" until="187.0"/> <!-- Vinayaka Talkies KR Market -->
    </route>
    <route id="pt_bus_252F:0" edges="372018370#0 372018370#1 139266401 498554152#0 498554152#1 498554152#2 498554151" >
        <stop busStop="2398074914@6856311" duration="30.00" until="121.0"/> <!-- Kempegowda Bus Station -->
    </route>
    <route id="pt_train_Mysuru_-_Chennai_Shatabdi_Express:0" edges="138078005#0 138078005#1 138078005#2 645645104 -431219876#4 -431219876#3 -431219876#2 -431219876#1 -431219876#0 53861699#0 53861699#1 825978827 825978824" >
        <stop busStop="806588782" duration="30.00" until="217.0"/> <!-- Bangalore City Junction -->
    </route>
    <route id="pt_bus_258CC:0" edges="498554151" >
        <stop busStop="3755675146" duration="30.00" until="46.0"/> <!-- Kempegowda Bus Station -->
    </route>
    <route id="pt_bus_226M:0" edges="36958313#0 36958313#1 162581479 525778225#0 525778225#1 525778226#0 525778226#1 525778226#2 373574994#0 373574994#1 373574994#2 373574994#3 373574994#4 525778223#0 525778223#1 190144809#0 190144809#2 190144809#4 454013128" >
        <stop busStop="2402160774" duration="30.00" until="121.0"/> <!-- Royan Circle -->
        <stop busStop="1632815594" duration="30.00" until="259.0"/> <!-- Krishnarajendra Market -->
    </route>
    <route id="pt_bus_251B:0" edges="498554151" >
        <stop busStop="3755675146" duration="30.00" until="76.0"/> <!-- Kempegowda Bus Station -->
    </route>
    <route id="pt_bus_341C:1" edges="36965408#1" >
        <stop busStop="6461616259" duration="30.00" until="39.0"/> <!-- Lalbagh Main Gate -->
    </route>
    <route id="pt_bus_404J:0" edges="730432812#3" >
        <stop busStop="4144224291" duration="30.00" until="42.0"/> <!-- Chinnaswamy Stadium -->
    </route>
    <route id="pt_bus_223E:0" edges="454013128 172891296 -767326471 -36885143#10 -36885143#9 -36885143#8 -36885143#7 -36885143#6 -36885143#5 -36885143#4 -36885143#3 -36885143#2 -36885143#1 -36885143#0 525778226#0 525778226#1 525778226#2 23076199#0" >
        <stop busStop="1632815594" duration="30.00" until="33.0"/> <!-- Krishnarajendra Market -->
        <stop busStop="5265674077" duration="30.00" until="176.0"/> <!-- Royan Circle -->
    </route>
    <route id="pt_bus_126A:0" edges="730432812#3" >
        <stop busStop="4144224291" duration="30.00" until="75.0"/> <!-- Chinnaswamy Stadium -->
    </route>
    <route id="pt_bus_223D:0" edges="454013128 172891296 -767326471 -36885143#10 -36885143#9 -36885143#8 -36885143#7 -36885143#6 -36885143#5 -36885143#4 -36885143#3 -36885143#2 -36885143#1 -36885143#0 525778226#0 525778226#1 525778226#2 23076199#0" >
        <stop busStop="1632815594" duration="30.00" until="34.0"/> <!-- Krishnarajendra Market -->
        <stop busStop="5265674077" duration="30.00" until="177.0"/> <!-- Royan Circle -->
    </route>
    <route id="pt_bus_G4:0" edges="23029716 23029284#0 23029284#1 23029284#3 23029284#4 23029284#5 239572011#0 239572011#1 239441161#0 239441161#1 239441161#2 239441161#3 -28842920#4 -28842920#3 -28842920#2 -28842920#0 -794756247#3 -794756247#2 -794756247#1 -794756247#0 553975952#0 553975952#1 553975952#2 553975952#3 553975952#4 553975952#5" >
        <stop busStop="1067841650" duration="30.00" until="31.0"/> <!-- Brigade Road -->
        <stop busStop="3406880176" duration="30.00" until="122.0"/> <!-- Vellara Junction -->
        <stop busStop="7141213462" duration="30.00" until="178.0"/> <!-- Johnson Market -->
        <stop busStop="7141213460" duration="30.00" until="258.0"/> <!-- Elgin Flour Mill -->
        <stop busStop="-7141213458" duration="30.00" until="382.0"/> <!-- Indian Christian Cemetry -->
    </route>
    <route id="pt_bus_77E:0" edges="170931909#0" >
        <stop busStop="1521343675" duration="30.00" until="68.0"/> <!-- Magadi Road 10th Cross -->
        <stop busStop="1521036512" duration="30.00" until="132.0"/> <!-- Magadi Road 5th Cross -->
        <stop busStop="249084526" duration="30.00" until="193.0"/> <!-- Magadi Road 1st Cross -->
    </route>
    <route id="pt_bus_293E:0" edges="760543010 760543009#0 760543009#1 760543009#2 172891297#0 172891297#1 172891297#2 172891297#3 172891297#4 172891297#5 244304928#0 244304928#1 244304928#2 244304928#3 310910082 763284659 37898955#0 37898955#1 37898955#2 461556532 148016888 22893740#0 22893740#1 154340361#0 154340361#1 154340361#2 154340361#3 154340361#4 154340361#5 154340361#6 36882313#0 36882313#1 36882313#2 26283603#0 26283603#1 26283603#2 26283603#3 26283603#4 26283603#5 26283603#6 26283603#7 26283603#8 26283603#9 26283603#10 107215083#0 107215083#1 107215083#2 107215083#4 362900184 359476587" >
        <stop busStop="7104861407" duration="30.00" until="31.0"/> <!-- KR Market -->
        <stop busStop="1739362330" duration="30.00" until="118.0"/> <!-- Town Hall -->
        <stop busStop="452414811" duration="30.00" until="274.0"/> <!-- Corporation Circle (Cubbon Park) -->
        <stop busStop="3741208081" duration="30.00" until="364.0"/> <!-- Kasturba Road -->
        <stop busStop="7106320857" duration="30.00" until="425.0"/> <!-- MG Statue -->
        <stop busStop="4144220197" duration="30.00" until="482.0"/> <!-- Chinnaswamy Stadium -->
    </route>
    <route id="pt_bus_290D:0" edges="362206700#0 362206700#1 362206700#2 362206700#3 362206700#4 553253465 553253466#0 553253466#1 764332429 358318632 764332431 147698259 46704070 234946738#0 234946738#1 234946738#2 234946738#3 36907507#0 36907507#1 36907507#2 36907507#3 36907507#4 36907507#5 36907507#6 150808480 150808482#0 150808482#1 150808482#2 150808482#3 28631881#0 28631881#1 402911910 139266401 498554152#0 498554152#1 498554152#2" >
        <stop busStop="663551443" duration="30.00" until="74.0"/> <!-- Vidhana Soudha -->
        <stop busStop="7142097525" duration="30.00" until="168.0"/> <!-- Maharani College, KR Circle -->
        <stop busStop="7142097523" duration="30.00" until="254.0"/> <!-- Cauvery Bhavana -->
        <stop busStop="3755675146@10603778" duration="30.00" until="469.0"/> <!-- Kempegowda Bus Station -->
    </route>
    <route id="pt_bus_292B:0" edges="580772044 368624554#0 368624554#1 691949961#0 691949961#1 372031016#0 372031016#1 498550660 402911911 760493329 760493330 454483792#0 454483792#1 36884366 372018380 139141579#0 139141579#1 580771983 36957700#0 36957700#1 36957700#2 375950939#0 375950939#1 375950939#2 747187455 36884551#1 251495490 150785556#0 150785556#1 150785556#2 150785556#3 150785556#4 779282846 779282844 764332430 362206701#0 362206701#1 362206701#2 362206701#3 362206701#4 362206701#5 362206701#6 362206701#7 362206701#8" >
        <stop busStop="3755675146@10591795" duration="30.00" until="31.0"/> <!-- Kempegowda Bus Station -->
        <stop busStop="5335240458" duration="30.00" until="268.0"/> <!-- Maharani College, KR Circle -->
        <stop busStop="663551440" duration="30.00" until="366.0"/> <!-- Vidhana Soudha -->
    </route>
    <route id="pt_bus_276:0" edges="372018370#0 372018370#1 139266401 31235676" >
        <stop busStop="2398074914" duration="30.00" until="433.0"/> <!-- Kempegowda Bus Station -->
    </route>
    <route id="pt_bus_111:0" edges="149104364 172891297#0 172891297#1 172891297#2 172891297#3 172891297#4 172891297#5 244304928#0 244304928#1 244304928#2 244304928#3 310910082 763284659 37898955#0 37898955#1 37898955#2 461556532 23076927#0 23076927#1 23076927#2 23076927#3 23076927#4 23076927#5 764332432#2 38684971#0 38684971#1 363477538 160558221#1 160558221#2" >
        <stop busStop="7131511277@10601097" duration="30.00" until="31.0"/> <!-- KR Market -->
        <stop busStop="1739362330" duration="30.00" until="142.0"/> <!-- Town Hall -->
        <stop busStop="2394042060" duration="30.00" until="274.0"/> <!-- Corporation -->
        <stop busStop="249087970" duration="30.00" until="347.0"/> <!-- Mysore Bank -->
        <stop busStop="2394043250" duration="30.00" until="433.0"/> <!-- Cauvery Bhavana -->
        <stop busStop="7140563294" duration="30.00" until="508.0"/> <!-- Maharanis College -->
    </route>
    <route id="pt_subway_Green:0" edges="607901289 -607901289 -607901291 -607901290 -607901286 -607901285 -607901292 607901292 607901285" >
        <stop busStop="5760198472" duration="30.00" until="74.0"/> <!-- Lalbagh -->
        <stop busStop="-5760198474" duration="30.00" until="149.0"/> <!-- National College -->
        <stop busStop="-5760198473" duration="30.00" until="243.0"/> <!-- Krishna Rajendra Market -->
        <stop busStop="-5760198469" duration="30.00" until="315.0"/> <!-- Chikkapete -->
        <stop busStop="5760198468" duration="30.00" until="420.0"/> <!-- Nadaprabhu Kempegowda Station, Majestic (Green Line) -->
    </route>
    <route id="pt_bus_TR4A:0" edges="730432812#0 730432812#1 730432812#3 36913434#1 36913434#3 36913434#4 36913434#5 36913434#6 36913434#7 36913434#8 36913434#9" >
        <stop busStop="4144224291" duration="30.00" until="116.0"/> <!-- Chinnaswamy Stadium -->
        <stop busStop="663573137" duration="30.00" until="185.0"/> <!-- Kasturba Road -->
    </route>
    <route id="pt_bus_108:0" edges="454013128 172891296 36897684#0 36897684#1 760543009#0 760543009#1 760543009#2 172891297#0 172891297#1 172891297#2 172891297#3 172891297#4 172891297#5 244304928#0 244304928#1 244304928#2 244304928#3 310910082 763284659 37898955#0 37898955#1 37898955#2 461556532 23076927#0 23076927#1 23076927#2 23076927#3 23076927#4 23076927#5" >
        <stop busStop="1632815594" duration="30.00" until="34.0"/> <!-- Krishnarajendra Market -->
        <stop busStop="1739362330" duration="30.00" until="158.0"/> <!-- Town Hall -->
        <stop busStop="2394042060" duration="30.00" until="308.0"/> <!-- Corporation -->
        <stop busStop="249087970" duration="30.00" until="381.0"/> <!-- Mysore Bank -->
    </route>
    <route id="pt_bus_78A:0" edges="372018370#0 372018370#1 139266401 31235676" >
        <stop busStop="2398074914" duration="30.00" until="457.0"/> <!-- Kempegowda Bus Station -->
    </route>
    <route id="pt_subway_Green:1" edges="568709017#0 568709017#1 549256482 343203596 549256481 549256480#0 549256480#1 549256479" >
        <stop busStop="5464787094" duration="30.00" until="94.0"/> <!-- Nadaprabhu Kempegowda Station, Majestic (Green Line) -->
        <stop busStop="1548300484" duration="30.00" until="179.0"/> <!-- Chikkapete -->
        <stop busStop="1524381523" duration="30.00" until="247.0"/> <!-- Krishna Rajendra Market -->
        <stop busStop="1524381509" duration="30.00" until="341.0"/> <!-- National College -->
        <stop busStop="1437223296" duration="30.00" until="415.0"/> <!-- Lalbagh -->
    </route>
    <route id="pt_bus_169:0" edges="23515741#0 23515741#1 107215079#0 107215079#1 107215079#3 544761381#0 544761381#1 544761383#1 542070644#0 542070644#1 542070644#2 542070644#3 72099282 172903814#0 172903814#1 172903814#2" >
        <stop busStop="3740957800" duration="30.00" until="91.0"/> <!-- Manikshaw Parade Ground -->
        <stop busStop="7108562603" duration="30.00" until="180.0"/> <!-- Commercial Street -->
        <stop busStop="2268440721" duration="30.00" until="247.0"/> <!-- Dickenson Road -->
    </route>
    <route id="pt_bus_G3A:0" edges="763290548#2" >
        <stop busStop="6584009983" duration="30.00" until="40.0"/> <!-- St Patrick's Church -->
    </route>
    <route id="pt_bus_293C:0" edges="149104364 172891297#0 172891297#1 172891297#2 172891297#3 172891297#4 172891297#5 244304928#0 244304928#1 244304928#2 244304928#3 310910082 763284659 37898955#0 37898955#1 37898955#2 461556532 23076927#0 23076927#1 23076927#2 23076927#3 23076927#4 23076927#5 -133867982#3 -133867982#2 -133867982#1 -133867982#0 391160931 358318632 391160980 764332430 362206701#0 362206701#1 362206701#2 362206701#3 362206701#4 362206701#5 362206701#6 362206701#7 362206701#8" >
        <stop busStop="7131511277@10601097" duration="30.00" until="31.0"/> <!-- KR Market -->
        <stop busStop="1739362330" duration="30.00" until="183.0"/> <!-- Town Hall -->
        <stop busStop="2394042060" duration="30.00" until="278.0"/> <!-- Corporation -->
        <stop busStop="249087970" duration="30.00" until="353.0"/> <!-- Mysore Bank -->
        <stop busStop="-7140581379" duration="30.00" until="431.0"/> <!-- KR Circle -->
        <stop busStop="663551440" duration="30.00" until="526.0"/> <!-- Vidhana Soudha -->
    </route>
    <route id="pt_bus_292:0" edges="760543010 760543009#0 760543009#1 760543009#2 172891297#0 172891297#1 172891297#2 172891297#3 172891297#4 172891297#5 244304928#0 244304928#1 244304928#2 244304928#3 310910082 763284659 37898955#0 37898955#1 37898955#2 461556532 148016888 22893740#0 22893740#1 154340361#0 154340361#1 154340361#2 154340361#3 154340361#4 154340361#5 154340361#6 36882313#0 36882313#1 36882313#2 26283603#0 26283603#1 26283603#2 26283603#3 26283603#4 26283603#5 26283603#6 26283603#7 26283603#8 26283603#9 26283603#10 107215083#0 107215083#1 107215083#2 107215083#4 362900184 359476587" >
        <stop busStop="7104861407" duration="30.00" until="31.0"/> <!-- KR Market -->
        <stop busStop="1739362330" duration="30.00" until="198.0"/> <!-- Town Hall -->
        <stop busStop="452414811" duration="30.00" until="306.0"/> <!-- Corporation Circle (Cubbon Park) -->
        <stop busStop="3741208081" duration="30.00" until="396.0"/> <!-- Kasturba Road -->
        <stop busStop="7106320857" duration="30.00" until="456.0"/> <!-- MG Statue -->
        <stop busStop="4144220197" duration="30.00" until="513.0"/> <!-- Chinnaswamy Stadium -->
    </route>
    <route id="pt_bus_226J:0" edges="31235676 580772059 163560246 498550660 402911911 544755517 150808476#0 150808476#1 150808476#2 150808476#3 150808476#4 36897658#0 36897658#1 36897658#2 36897658#3 36897658#5 36897658#7 36897658#8 36897658#9 36897658#10 36897658#11 36897658#13 36897658#14 36897658#15 36897658#16 36897658#17 36897685#0 36897685#1 36897685#3 36897685#4 36897685#5 36897685#6 36897685#7 36897685#8 525778226#0 525778226#1 525778226#2 23076199#0 23076199#1 23076199#2 23076199#3 23076199#4 23076199#5 23076199#6" >
        <stop busStop="2398074914" duration="30.00" until="56.0"/> <!-- Kempegowda Bus Station -->
        <stop busStop="2393966538" duration="30.00" until="333.0"/> <!-- Cottonpet Hospital Super Talkies -->
        <stop busStop="2402160774" duration="30.00" until="438.0"/> <!-- Royan Circle -->
    </route>
    <route id="pt_bus_201N:0" edges="763290548#2" >
        <stop busStop="6584009983" duration="30.00" until="72.0"/> <!-- St Patrick's Church -->
    </route>
    <route id="pt_bus_294B:0" edges="580772044 368624554#0 368624554#1 691949961#0 691949961#1 372031016#0 372031016#1 498550660 402911911 760493329 760493330 454483792#0 454483792#1 36884366 372018380 139141579#0 139141579#1 580771983 36957700#0 36957700#1 36957700#2 375950939#0 375950939#1 375950939#2 747187455 36884551#1 251495490 150785556#0 150785556#1 150785556#2 150785556#3 150785556#4 779282846 779282844 764332430 362206701#0 362206701#1 362206701#2 362206701#3 362206701#4 362206701#5 362206701#6 362206701#7 362206701#8" >
        <stop busStop="3755675146@10591795" duration="30.00" until="31.0"/> <!-- Kempegowda Bus Station -->
        <stop busStop="5335240458" duration="30.00" until="338.0"/> <!-- Maharani College, KR Circle -->
        <stop busStop="663551440" duration="30.00" until="463.0"/> <!-- Vidhana Soudha -->
    </route>
    <route id="pt_bus_290B:0" edges="580772044 368624554#0 368624554#1 691949961#0 691949961#1 372031016#0 372031016#1 498550660 402911911 760493329 760493330 454483792#0 454483792#1 36884366 372018380 139141579#0 139141579#1 580771983 36957700#0 36957700#1 36957700#2 375950939#0 375950939#1 375950939#2 747187455 36884551#1 251495490 150785556#0 150785556#1 150785556#2 150785556#3 150785556#4 779282846 779282844 764332430 362206701#0 362206701#1 362206701#2 362206701#3 362206701#4 362206701#5 362206701#6 362206701#7 362206701#8" >
        <stop busStop="3755675146@10591795" duration="30.00" until="31.0"/> <!-- Kempegowda Bus Station -->
        <stop busStop="5335240458" duration="30.00" until="342.0"/> <!-- Maharani College, KR Circle -->
        <stop busStop="663551440" duration="30.00" until="467.0"/> <!-- Vidhana Soudha -->
    </route>
    <route id="pt_bus_G2:0" edges="327639080 635340513 325833350#0 325833350#1 325833350#2 325833350#4 27007398#0 27007398#1 27007398#3 27007398#4 28137491#1 28137491#2 764329017#0 764329017#1 764329017#2 401908499#0 401908499#1 763175333#0 763175333#1 763175333#2 763175333#3 763175333#4 763175333#5 38772795#0 38772795#1 38772795#2 38772795#4 38772795#5 38772795#6 38772795#7 38772795#9 38772795#10 38772795#11 462585138#1 764329016 462585137 8680571#0 8680571#1 8680571#3 8680571#4 8680571#5 8680571#6 8680571#7" >
        <stop busStop="2406087671" duration="30.00" until="227.0"/> <!-- ASC Center -->
        <stop busStop="2406115674" duration="30.00" until="303.0"/> <!-- Vannarapete -->
        <stop busStop="5772182583" duration="30.00" until="382.0"/> <!-- Ejipura Bus Stand -->
        <stop busStop="5803875104" duration="30.00" until="443.0"/> <!-- NGV Gate -->
    </route>
    <route id="pt_bus_201K:0" edges="763290548#2" >
        <stop busStop="6584009983" duration="30.00" until="73.0"/> <!-- St Patrick's Church -->
    </route>
    <route id="pt_bus_286A:0" edges="760543010 760543009#0 760543009#1 760543009#2 172891297#0 172891297#1 172891297#2 172891297#3 172891297#4 172891297#5 244304928#0 244304928#1 244304928#2 244304928#3 310910082 763284659 37898955#0 37898955#1 37898955#2 461556532 23076927#0 23076927#1 23076927#2 23076927#3 23076927#4 23076927#5 764332432#2 36907507#0 36907507#1 36907507#2 36907507#3 36907507#4 36907507#5 36907507#6 150808480 150808482#0 150808482#1 150808482#2 150808482#3 28631881#0 28631881#1 402911910 139266401 498554152#0 498554152#1 498554152#2 498554151 580772044 368624554#0 368624554#1 691949961#0 691949961#1 372031016#0 372031016#1 498550660 402911911 760493329 760493330 454483792#0 454483792#1 36884366 372018380 139141579#0 139141579#1 580771983 31235670 760543008 36884553" >
        <stop busStop="7104861407" duration="30.00" until="31.0"/> <!-- KR Market -->
        <stop busStop="1739362330" duration="30.00" until="158.0"/> <!-- Town Hall -->
        <stop busStop="2394042060" duration="30.00" until="331.0"/> <!-- Corporation -->
        <stop busStop="249087970" duration="30.00" until="406.0"/> <!-- Mysore Bank -->
        <stop busStop="3755675146" duration="30.00" until="578.0"/> <!-- Kempegowda Bus Station -->
    </route>
    <route id="pt_bus_201:0" edges="763290548#2" >
        <stop busStop="6584009983" duration="30.00" until="73.0"/> <!-- St Patrick's Church -->
    </route>
    <route id="pt_bus_89C:0" edges="31235676" >
        <stop busStop="2398074914" duration="30.00" until="298.0"/> <!-- Kempegowda Bus Station -->
    </route>
    <route id="pt_bus_218A:0" edges="31235676 580772059 163560246 498550660 402911911 544755517 150808476#0 150808476#1 150808476#2 150808476#3 150808476#4 36897658#0 36897658#1 36897658#2 36897658#3 36897658#5 36897658#7 36897658#8 36897658#9 36897658#10 36897658#11 36897658#13 36897658#14 36897658#15 36897658#16 36897658#17 36897685#0 36897685#1 36897685#3 36897685#4 36897685#5 36897685#6 36897685#7 36897685#8 525778226#0 525778226#1 525778226#2 23076199#0 23076199#1 23076199#2 23076199#3 23076199#4 23076199#5 23076199#6" >
        <stop busStop="2398074914" duration="30.00" until="146.0"/> <!-- Kempegowda Bus Station -->
        <stop busStop="2393966538" duration="30.00" until="421.0"/> <!-- Cottonpet Hospital Super Talkies -->
        <stop busStop="2402160774" duration="30.00" until="526.0"/> <!-- Royan Circle -->
    </route>
    <route id="pt_bus_102:0" edges="454013128 172891296 36897684#0 36897684#1 760543009#0 760543009#1 760543009#2 172891297#0 172891297#1 172891297#2 172891297#3 172891297#4 172891297#5 244304928#0 244304928#1 244304928#2 244304928#3 310910082 763284659 37898955#0 37898955#1 37898955#2 461556532 23076927#0 23076927#1 23076927#2 23076927#3 23076927#4 23076927#5 764332432#2 38684971#0 38684971#1 363477538 160558221#1 208827396#2 208827396#3 208827396#3-AddedOffRampEdge 208827400 150785556#3 150785556#4 779282846 779282844 764332430 362206701#0 362206701#1 362206701#2 362206701#3 362206701#4 362206700#3" >
        <stop busStop="1632815594" duration="30.00" until="33.0"/> <!-- Krishnarajendra Market -->
        <stop busStop="1739362330" duration="30.00" until="153.0"/> <!-- Town Hall -->
        <stop busStop="2394042060" duration="30.00" until="302.0"/> <!-- Corporation -->
        <stop busStop="249087970" duration="30.00" until="376.0"/> <!-- Mysore Bank -->
        <stop busStop="5335240458" duration="30.00" until="512.0"/> <!-- Maharani College, KR Circle -->
        <stop busStop="663551443" duration="30.00" until="592.0"/> <!-- Vidhana Soudha -->
    </route>
    <route id="pt_bus_KBS3A:0" edges="766406231 375964869 375964865 639010022#1 639010022#2 375964867#1 375964867#2 36897703#0 36897703#1 763282652 36965407 152462760 375964868#0 375964868#1 375964868#2 375964868#3 224618934#0 224618934#1 224618934#2 224618934#3 224618934#4 224618934#5 224618934#7 224618934#8 224618934#9 224618934#10 224618934#11 148016866#0 148016866#1 148016873#0 148016873#1 461556532 23076927#0 23076927#1 23076927#2 23076927#3 23076927#4 23076927#5 764332432#2 36907507#0 36907507#1 36907507#2 36907507#3 36907507#4 36907507#5 36907507#6 150808480 150808482#0 150808482#1 150808482#2 150808482#3 28631881#0 28631881#1 402911910" >
        <stop busStop="2396890811" duration="30.00" until="123.0"/> <!-- KH Road, Double Road -->
        <stop busStop="597363270" duration="30.00" until="293.0"/> <!-- Hudson Circle -->
        <stop busStop="2393695722" duration="30.00" until="373.0"/> <!-- Corporation Circle -->
        <stop busStop="2394042060" duration="30.00" until="435.0"/> <!-- Corporation -->
        <stop busStop="249087970" duration="30.00" until="509.0"/> <!-- Mysore Bank -->
    </route>
    <route id="pt_bus_342WA:0" edges="730432812#0 730432812#1 730432812#3 36913434#1 36913434#3 36913434#4 36913434#5 36913434#6 36913434#7 36913434#8 36913434#9" >
        <stop busStop="4144224291" duration="30.00" until="240.0"/> <!-- Chinnaswamy Stadium -->
        <stop busStop="663573137" duration="30.00" until="361.0"/> <!-- Kasturba Road -->
    </route>
    <route id="pt_bus_96G:0" edges="31235676" >
        <stop busStop="2398074914" duration="30.00" until="299.0"/> <!-- Kempegowda Bus Station -->
    </route>
    <route id="pt_bus_222A:0" edges="31235676 580772059 163560246 498550660 402911911 544755517 150808476#0 150808476#1 150808476#2 150808476#3 150808476#4 36897658#0 36897658#1 36897658#2 36897658#3 36897658#5 36897658#7 36897658#8 36897658#9 36897658#10 36897658#11 36897658#13 36897658#14 36897658#15 36897658#16 36897658#17 36897685#0 36897685#1 36897685#3 36897685#4 36897685#5 36897685#6 36897685#7 36897685#8 525778226#0 525778226#1 525778226#2 23076199#0" >
        <stop busStop="2398074914" duration="30.00" until="213.0"/> <!-- Kempegowda Bus Station -->
        <stop busStop="2393966538" duration="30.00" until="489.0"/> <!-- Cottonpet Hospital Super Talkies -->
        <stop busStop="5265674077" duration="30.00" until="602.0"/> <!-- Royan Circle -->
    </route>
    <route id="pt_bus_218:0" edges="31235676 580772059 163560246 498550660 402911911 544755517 150808476#0 150808476#1 150808476#2 150808476#3 150808476#4 36897658#0 36897658#1 36897658#2 36897658#3 36897658#5 36897658#7 36897658#8 36897658#9 36897658#10 36897658#11 36897658#13 36897658#14 36897658#15 36897658#16 36897658#17 36897685#0 36897685#1 36897685#3 36897685#4 36897685#5 36897685#6 36897685#7 36897685#8 525778226#0 525778226#1 525778226#2 23076199#0 23076199#1 23076199#2 23076199#3 23076199#4 23076199#5 23076199#6" >
        <stop busStop="2398074914" duration="30.00" until="179.0"/> <!-- Kempegowda Bus Station -->
        <stop busStop="2393966538" duration="30.00" until="452.0"/> <!-- Cottonpet Hospital Super Talkies -->
        <stop busStop="2402160774" duration="30.00" until="562.0"/> <!-- Royan Circle -->
    </route>
    <route id="pt_bus_341C:0" edges="639010018#0 639010018#1 639010018#2 639010018#3 639010018#4 639010018#5 145409123#0 145409123#1 145409123#2 145409123#3 36853145#0 36853145#1 36853145#2 23078145#0 169453737#0 169453737#1 169453737#3 169453737#4 169453737#5 169453737#6 169453737#7 169453737#8 169453737#9 169453737#10 169453737#11 23036323#0 23036323#1 23036323#2 462585115#0 462585115#1 462585115#2 462585115#3 763175324 143368260#0 143368260#1 688824223#0 688824223#1 688824223#2 688824223#3 23081608#0 23081608#1 23081608#2 763175323#0 763175323#1 763175323#2 150357930#0 150357930#1 150357930#2 -688883747#0" >
        <stop busStop="4349257795" duration="30.00" until="107.0"/> <!-- Lalbhag Hopcoms -->
        <stop busStop="6460998309" duration="30.00" until="191.0"/> <!-- Lalbag Main Gate -->
        <stop busStop="1568922532" duration="30.00" until="321.0"/> <!-- Town Hall -->
        <stop busStop="6460998320" duration="30.00" until="403.0"/> <!-- KR Market -->
    </route>
    <route id="pt_bus_K1:0" edges="464465186#0 464465186#2 464465186#3 464465186#4 464465186#5 464465186#6 464465186#7 464465186#8 464465186#9 464465186#10 464465186#11 464465186#12 464465186#13 464465186#14 464465205#0 464465205#1 464465205#2 464465205#3 464465205#4 464465205#5 464465205#6 464465205#8 464465205#9 464465205#10 38522161#1 328349209#1 328349209#2 328349209#3 395151747#0 395151747#1 395151747#2 395151747#3 395151747#4 484510041#1 484510041#2 484510041#5 72099280#0 72099280#1 72099280#2 72099280#3 72099280#4 328758433#0 328758433#1 328758433#3 544761382#1 544761382#2 544761380#0 544761378 542070647#1 542070647#3 763290544#0 763290544#1 763290544#2 763290544#3" >
        <stop busStop="2401658294" duration="30.00" until="74.0"/> <!-- Lakshmipura Ulsoor -->
        <stop busStop="2401658592" duration="30.00" until="153.0"/> <!-- Halasuru -->
        <stop busStop="4595656669" duration="30.00" until="218.0"/> <!-- Halasur Police Station -->
        <stop busStop="2949043344" duration="30.00" until="284.0"/> <!-- Lido Talkies -->
        <stop busStop="287905435" duration="30.00" until="437.0"/> <!-- Hasanath College -->
        <stop busStop="3304155383" duration="30.00" until="500.0"/> <!-- Dickenson Road -->
        <stop busStop="2405357303" duration="30.00" until="580.0"/> <!-- Maniksha Parade Ground -->
    </route>
    <route id="pt_bus_368:0" edges="730432812#0 730432812#1 730432812#3 36913434#1 36913434#3 36913434#4 36913434#5 36913434#6 36913434#7 36913434#8 36913434#9 403473952#0 403473952#1 36851759#0 36851759#1" >
        <stop busStop="4144224291" duration="30.00" until="208.0"/> <!-- Chinnaswamy Stadium -->
        <stop busStop="663573137" duration="30.00" until="329.0"/> <!-- Kasturba Road -->
        <stop busStop="2468903219" duration="30.00" until="418.0"/> <!-- Mallya Hospital -->
    </route>
    <route id="pt_bus_335M:0" edges="36851759#0 36851759#1 36852351#0 36852351#1 36852351#2 91894181#0 91894181#1 627144178#0" >