<?xml version="1.0" encoding="UTF-8"?>

<!-- generated on Thu Mar  4 13:20:40 2021 by Eclipse SUMO netconvert Version 1.8.0
<configuration xmlns:xsi="http://www.w3.org/2001/XMLSchema-instance" xsi:noNamespaceSchemaLocation="http://sumo.dlr.de/xsd/netconvertConfiguration.xsd">

    <input>
        <type-files value="/usr/share/sumo/data/typemap/osmNetconvert.typ.xml"/>
        <osm-files value="osm_bbox.osm.xml"/>
    </input>

    <output>
        <output-file value="osm.net.xml"/>
        <output.street-names value="true"/>
        <output.original-names value="true"/>
        <ptstop-output value="osm_stops.add.xml"/>
        <ptline-output value="osm_ptlines.xml"/>
    </output>

    <projection>
        <proj.utm value="true"/>
    </projection>

    <processing>
        <geometry.remove value="true"/>
        <roundabouts.guess value="true"/>
        <lefthand value="true"/>
    </processing>

    <tls_building>
        <tls.discard-simple value="true"/>
        <tls.join value="true"/>
        <tls.guess-signals value="true"/>
        <tls.default-type value="actuated"/>
    </tls_building>

    <ramp_guessing>
        <ramps.guess value="true"/>
    </ramp_guessing>

    <junctions>
        <junctions.join value="true"/>
        <junctions.corner-detail value="5"/>
    </junctions>

    <railway>
        <railway.topology.repair value="true"/>
        <railway.topology.repair.stop-turn value="true"/>
    </railway>

    <report>
        <verbose value="true"/>
        <aggregate-warnings value="5"/>
    </report>

</configuration>
-->

<additional xmlns:xsi="http://www.w3.org/2001/XMLSchema-instance" xsi:noNamespaceSchemaLocation="http://sumo.dlr.de/xsd/additional_file.xsd">
    <busStop id="-1617752128" name="Nanjappa Circle" lane="-23018325#12_0" startPos="0.00" endPos="10.58" friendlyPos="true" lines="140"/>
    <busStop id="-2402196851" name="Vinayaka Talkies KR Market" lane="-525778225#0_0" startPos="28.71" endPos="43.71" friendlyPos="true" lines="55B"/>
    <busStop id="-2406087672" name="Austin Town" lane="-401908497#2_0" startPos="22.62" endPos="37.62" friendlyPos="true" lines="140 144K 141E"/>
    <busStop id="-2406089988" name="Akkithimmanahalli" lane="-23018325#2_0" startPos="111.38" endPos="126.38" friendlyPos="true" lines="140"/>
    <busStop id="-2406115675" name="Vivekanagara" lane="-763175334#5_0" startPos="0.00" endPos="7.50" friendlyPos="true" lines="140"/>
    <busStop id="-2406537990" name="Neelasandra Rose Garden" lane="-28126587#1_0" startPos="48.16" endPos="63.15" friendlyPos="true" lines="144E"/>
    <busStop id="-443252765" name="Fairland Shop" lane="-52736010#11_0" startPos="25.75" endPos="39.67" friendlyPos="true" lines="141E"/>
    <busStop id="-5760197788" name="Krantivira Sangolli Rayanna Railway Station" lane="-607901258_0" startPos="114.59" endPos="214.59" friendlyPos="true">
        <access lane="457464671#0_0" pos="121.97" length="2.09" friendlyPos="1"/>
        <access lane="457464671#1_0" pos="17.63" length="18.50" friendlyPos="1"/>
        <access lane="457467384_0" pos="12.61" length="71.63" friendlyPos="1"/>
        <access lane="457467385_0" pos="13.39" length="53.62" friendlyPos="1"/>
        <access lane="457467387_0" pos="12.82" length="38.60" friendlyPos="1"/>
    </busStop>
    <busStop id="-5760197792" name="Indiranagar" lane="-607901263_0" startPos="1292.22" endPos="1392.22" friendlyPos="true">
        <access lane="126774193#12_0" pos="138.90" length="102.02" friendlyPos="1"/>
        <access lane="464465186#0_0" pos="0.00" length="103.59" friendlyPos="1"/>
    </busStop>
    <busStop id="-5760197793" name="Halasuru" lane="-607901263_0" startPos="0.00" endPos="100.00" friendlyPos="true">
        <access lane="-492441116#0_0" pos="66.20" length="22.32" friendlyPos="1"/>
        <access lane="464465205#4_0" pos="4.49" length="17.18" friendlyPos="1"/>
        <access lane="492441116#0_0" pos="0.00" length="18.23" friendlyPos="1"/>
        <access lane="638541497#16_0" pos="104.29" length="4.15" friendlyPos="1"/>
        <access lane="638541497#17_0" pos="0.00" length="28.40" friendlyPos="1"/>
    </busStop>
    <busStop id="-5760197794" name="Trinity" lane="-607901264_0" startPos="0.00" endPos="100.00" friendlyPos="true">
        <access lane="-760125407_0" pos="88.55" length="7.93" friendlyPos="1"/>
        <access lane="263812623#7_0" pos="1.22" length="7.71" friendlyPos="1"/>
        <access lane="263812623#8_0" pos="0.00" length="7.22" friendlyPos="1"/>
        <access lane="434696514_0" pos="3.17" length="14.80" friendlyPos="1"/>
        <access lane="760125407_0" pos="0.00" length="7.81" friendlyPos="1"/>
    </busStop>
    <busStop id="-5760197795" name="Mahatma Gandhi Road" lane="-607901265_0" startPos="0.00" endPos="100.00" friendlyPos="true">
        <access lane="327534070#5_0" pos="6.69" length="39.90" friendlyPos="1"/>
        <access lane="327534071_0" pos="0.00" length="12.08" friendlyPos="1"/>
        <access lane="396903045#1_0" pos="533.13" length="2.31" friendlyPos="1"/>
        <access lane="435249314#1_0" pos="109.74" length="32.27" friendlyPos="1"/>
        <access lane="4354953#7_0" pos="537.75" length="9.45" friendlyPos="1"/>
    </busStop>
    <busStop id="-5760197798" name="Cubbon Park" lane="-607901268_0" startPos="0.00" endPos="100.00" friendlyPos="true">
        <access lane="107215088#2_0" pos="47.90" length="28.20" friendlyPos="1"/>
        <access lane="362900184_0" pos="0.00" length="33.68" friendlyPos="1"/>
        <access lane="362900185#0_0" pos="0.00" length="13.13" friendlyPos="1"/>
        <access lane="508711047_0" pos="0.00" length="11.32" friendlyPos="1"/>
        <access lane="508711049#0_0" pos="0.00" length="32.00" friendlyPos="1"/>
    </busStop>
    <busStop id="-5760197799" name="Dr. B R Ambedkar Station, Vidhana Soudha" lane="-607901269_0" startPos="0.00" endPos="100.00" friendlyPos="true">
        <access lane="-38542545#1_0" pos="39.76" length="80.93" friendlyPos="1"/>
        <access lane="362206700#2_0" pos="142.05" length="13.04" friendlyPos="1"/>
        <access lane="362206701#5_0" pos="135.36" length="9.99" friendlyPos="1"/>
        <access lane="372150308#0_0" pos="63.65" length="97.56" friendlyPos="1"/>
        <access lane="38542545#1_0" pos="44.36" length="76.13" friendlyPos="1"/>
    </busStop>
    <busStop id="-5760197800" name="Nadaprabhu Kempegowda Station, Majestic (Purple Line)" lane="-607901259_0" startPos="695.49" endPos="795.49" friendlyPos="true">
        <access lane="-510973203_0" pos="34.63" length="52.92" friendlyPos="1"/>
        <access lane="373570000_0" pos="123.10" length="163.39" friendlyPos="1"/>
        <access lane="510973203_0" pos="171.84" length="57.72" friendlyPos="1"/>
        <access lane="53857348_0" pos="66.24" length="169.40" friendlyPos="1"/>
        <access lane="630675225_0" pos="0.00" length="96.17" friendlyPos="1"/>
    </busStop>
    <busStop id="-5760197802" name="Sir M Vishweshwariah - Central College" lane="-607901270_0" startPos="0.00" endPos="100.00" friendlyPos="true">
        <access lane="-133867982#1_0" pos="100.20" length="5.36" friendlyPos="1"/>
        <access lane="133867982#0_0" pos="263.41" length="72.03" friendlyPos="1"/>
        <access lane="133867982#1_0" pos="43.02" length="0.56" friendlyPos="1"/>
        <access lane="52244620_0" pos="0.00" length="68.28" friendlyPos="1"/>
        <access lane="52245876_0" pos="5.08" length="68.33" friendlyPos="1"/>
    </busStop>
    <busStop id="-5760198468" name="Nadaprabhu Kempegowda Station, Majestic (Green Line)" lane="-607901285_0" startPos="885.25" endPos="985.25" friendlyPos="true">
        <access lane="-510973203_0" pos="34.40" length="104.98" friendlyPos="1"/>
        <access lane="373570000_0" pos="123.10" length="150.77" friendlyPos="1"/>
        <access lane="510973203_0" pos="171.84" length="109.81" friendlyPos="1"/>
        <access lane="544757155#1_0" pos="63.84" length="152.82" friendlyPos="1"/>
        <access lane="630675225_0" pos="0.00" length="115.06" friendlyPos="1"/>
    </busStop>
    <busStop id="-5760198469" name="Chikkapete" lane="-607901285_0" startPos="0.00" endPos="100.00" friendlyPos="true">
        <access lane="-38540558#8_0" pos="75.37" length="66.93" friendlyPos="1"/>
        <access lane="-744544603_0" pos="157.63" length="37.88" friendlyPos="1"/>
        <access lane="38540558#7_0" pos="13.58" length="80.56" friendlyPos="1"/>
        <access lane="38540558#8_0" pos="19.39" length="62.13" friendlyPos="1"/>
        <access lane="744544603_0" pos="35.67" length="42.68" friendlyPos="1"/>
    </busStop>
    <busStop id="-5760198472" name="Lalbagh" lane="-607901289_0" startPos="0.00" endPos="100.00" friendlyPos="true">
        <access lane="-149105514#1_0" pos="45.13" length="71.44" friendlyPos="1"/>
        <access lane="149105514#1_0" pos="78.30" length="66.64" friendlyPos="1"/>
        <access lane="23053764#4_0" pos="70.06" length="22.26" friendlyPos="1"/>
        <access lane="490723309#0_0" pos="1077.64" length="12.22" friendlyPos="1"/>
        <access lane="53583678_0" pos="301.04" length="52.82" friendlyPos="1"/>
    </busStop>
    <busStop id="-5760198473" name="Krishna Rajendra Market" lane="-607901286_0" startPos="0.00" endPos="100.00" friendlyPos="true">
        <access lane="-373575002#2_0" pos="0.00" length="40.62" friendlyPos="1"/>
        <access lane="-727353146_0" pos="20.62" length="4.99" friendlyPos="1"/>
        <access lane="373575000_0" pos="0.00" length="38.64" friendlyPos="1"/>
        <access lane="373575002#2_0" pos="75.55" length="35.82" friendlyPos="1"/>
        <access lane="727353146_0" pos="24.58" length="9.79" friendlyPos="1"/>
    </busStop>
    <busStop id="-5760198474" name="National College" lane="-607901289_0" startPos="906.54" endPos="1006.54" friendlyPos="true">
        <access lane="-112380260#1_0" pos="0.00" length="55.78" friendlyPos="1"/>
        <access lane="112380260#1_0" pos="19.42" length="51.68" friendlyPos="1"/>
        <access lane="376490454#3_0" pos="228.06" length="10.49" friendlyPos="1"/>
        <access lane="376490454#4_0" pos="0.00" length="57.26" friendlyPos="1"/>
        <access lane="461209415#1_0" pos="23.54" length="19.03" friendlyPos="1"/>
    </busStop>
    <busStop id="-6017833822" name="Vannarapete" lane="-763175333#1_0" startPos="18.44" endPos="33.44" friendlyPos="true" lines="140 G2 141E"/>
    <busStop id="-7105069823" name="Chamarajapet" lane="-23076215#5_0" startPos="28.97" endPos="43.97" friendlyPos="true" lines="52"/>
    <busStop id="-7105069825" name="Makkala Koota" lane="-162697329#4_0" startPos="51.07" endPos="66.07" friendlyPos="true" lines="52"/>
    <busStop id="-7132452577" name="Vivekanagara" lane="-38772795#0_0" startPos="3.72" endPos="15.81" friendlyPos="true" lines="141E"/>
    <busStop id="-7132452579" name="Vivek Nagar Police Station, Ravi Tent" lane="-52736010#1_0" startPos="33.89" endPos="48.38" friendlyPos="true" lines="141E"/>
    <busStop id="-7132452581" name="Shine Bakery" lane="-52736010#6_0" startPos="0.00" endPos="8.68" friendlyPos="true" lines="141E"/>
    <busStop id="-7132495620" name="Neelasandra Bus Stand" lane="-763293417#1_0" startPos="0.00" endPos="12.85" friendlyPos="true" lines="144K"/>
    <busStop id="-7140581379" name="KR Circle" lane="-133867982#0_0" startPos="237.86" endPos="252.86" friendlyPos="true" lines="293C"/>
    <busStop id="-7141213458" name="Indian Christian Cemetry" lane="-28842920#4_0" startPos="28.65" endPos="43.65" friendlyPos="true" lines="G4"/>
    <busStop id="1067841650" name="Brigade Road" lane="23029716_0" startPos="0.00" endPos="7.75" friendlyPos="true" lines="G4"/>
    <busStop id="1087823607" name="Sir M Vishweshwariah - Central College" lane="549187836_0" startPos="844.55" endPos="933.20" friendlyPos="true" lines="Purple">
        <access lane="-133867982#0_0" pos="0.00" length="73.07" friendlyPos="1"/>
        <access lane="-133867982#1_0" pos="100.25" length="12.81" friendlyPos="1"/>
        <access lane="133867982#0_0" pos="263.41" length="72.40" friendlyPos="1"/>
        <access lane="133867982#1_0" pos="42.97" length="8.01" friendlyPos="1"/>
        <access lane="52244620_0" pos="4.83" length="67.77" friendlyPos="1"/>
    </busStop>
    <busStop id="1156224150" name="Pothalappa Garden" lane="162583705#2_0" startPos="0.00" endPos="11.70" friendlyPos="true"/>
    <busStop id="1323690429" name="Makkala Koota" lane="759364436_0" startPos="29.52" endPos="44.52" friendlyPos="true" lines="1 TR12"/>
    <busStop id="1383996009" name="St. Joseph&apos;s College" lane="461556535#6_0" startPos="142.59" endPos="157.59" friendlyPos="true" lines="333 K4 TR7 MBS14 37E 34B 13F 13B"/>
    <busStop id="1437223296" name="Lalbagh" lane="549256479_0" startPos="906.69" endPos="817.42" friendlyPos="true" lines="Green">
        <access lane="-149105514#1_0" pos="45.45" length="78.31" friendlyPos="1"/>
        <access lane="149105514#1_0" pos="77.98" length="73.51" friendlyPos="1"/>
        <access lane="23053764#4_0" pos="70.10" length="15.37" friendlyPos="1"/>
        <access lane="490723309#0_0" pos="1077.62" length="19.11" friendlyPos="1"/>
        <access lane="53583678_0" pos="301.58" length="45.98" friendlyPos="1"/>
    </busStop>
    <busStop id="1442068021" name="Lalbagh Siddapura (Lalbagh East Gate)" lane="130989093#3_0" startPos="296.68" endPos="321.68" friendlyPos="true"/>
    <busStop id="1454651909" name="Command Hospital" lane="464465170#2_0" startPos="174.65" endPos="199.65" friendlyPos="true"/>
    <busStop id="1488405363" name="Indira Nagar Double Road" lane="126774193#12_0" startPos="9.57" endPos="24.57" friendlyPos="true"/>
    <busStop id="1521036512" name="Magadi Road 5th Cross" lane="170931909#0_0" startPos="907.48" endPos="922.48" friendlyPos="true"/>
    <busStop id="1521343675" name="Magadi Road 10th Cross" lane="170931909#0_0" startPos="496.69" endPos="511.69" friendlyPos="true"/>
    <busStop id="1524381509" name="National College" lane="549256479_0" startPos="0.00" endPos="100.00" friendlyPos="true" lines="Green">
        <access lane="-112380260#1_0" pos="0.00" length="52.61" friendlyPos="1"/>
        <access lane="112380260#1_0" pos="19.42" length="48.25" friendlyPos="1"/>
        <access lane="172937188#4_0" pos="248.43" length="58.02" friendlyPos="1"/>
        <access lane="376490454#3_0" pos="228.07" length="17.38" friendlyPos="1"/>
        <access lane="461209415#1_0" pos="23.45" length="12.15" friendlyPos="1"/>
    </busStop>
    <busStop id="1524381523" name="Krishna Rajendra Market" lane="343203596_0" startPos="574.11" endPos="668.03" friendlyPos="true" lines="Green">
        <access lane="-727353146_0" pos="25.08" length="6.58" friendlyPos="1"/>
        <access lane="373575002#2_0" pos="75.55" length="42.56" friendlyPos="1"/>
        <access lane="525778223#0_0" pos="96.40" length="38.62" friendlyPos="1"/>
        <access lane="525778223#1_0" pos="1.91" length="34.69" friendlyPos="1"/>
        <access lane="727353146_0" pos="20.12" length="11.38" friendlyPos="1"/>
    </busStop>
    <busStop id="1548300484" name="Chikkapete" lane="343203596_0" startPos="0.00" endPos="100.00" friendlyPos="true" lines="Green">
        <access lane="-38540558#8_0" pos="77.53" length="73.01" friendlyPos="1"/>
        <access lane="-744544603_0" pos="153.57" length="34.68" friendlyPos="1"/>
        <access lane="38540558#7_0" pos="13.58" length="83.51" friendlyPos="1"/>
        <access lane="38540558#8_0" pos="17.22" length="68.21" friendlyPos="1"/>
        <access lane="744544603_0" pos="39.74" length="39.48" friendlyPos="1"/>
    </busStop>
    <busStop id="1557291133" name="Shoolay Circle" lane="764329019#2_0" startPos="70.84" endPos="95.84" friendlyPos="true"/>
    <busStop id="1560067666" name="Krantivira Sangolli Rayanna Railway Station" lane="133867981_0" startPos="746.18" endPos="844.48" friendlyPos="true" lines="Purple">
        <access lane="457464671#0_0" pos="121.88" length="5.33" friendlyPos="1"/>
        <access lane="457464671#1_0" pos="17.70" length="11.07" friendlyPos="1"/>
        <access lane="457467384_0" pos="12.61" length="66.78" friendlyPos="1"/>
        <access lane="457467385_0" pos="13.39" length="49.85" friendlyPos="1"/>
        <access lane="457467387_0" pos="12.82" length="35.81" friendlyPos="1"/>
    </busStop>
    <busStop id="1568922532" name="Town Hall" lane="688824223#0_0" startPos="20.32" endPos="35.32" friendlyPos="true" lines="140 52 341C"/>
    <busStop id="1597612576" name="Lido" lane="328349209#1_0" startPos="24.99" endPos="49.99" friendlyPos="true"/>
    <busStop id="1597612577" lane="461556542#1_0" startPos="9.63" endPos="34.63" friendlyPos="true"/>
    <busStop id="1617749837" name="Johnson Market" lane="764329020#0_0" startPos="587.62" endPos="602.62" friendlyPos="true" lines="146E"/>
    <busStop id="1632815594" name="Krishnarajendra Market" lane="454013128_0" startPos="0.00" endPos="13.54" friendlyPos="true" lines="1"/>
    <busStop id="1635922811" name="Trinity Circle" lane="638541497#1_0" startPos="24.16" endPos="39.16" friendlyPos="true" lines="K4"/>
    <busStop id="1635922819" name="Trinity Circle" lane="638541497#4_0" startPos="0.00" endPos="16.83" friendlyPos="true"/>
    <busStop id="1650296781" name="Subbaiah Circle" lane="328836685#5_0" startPos="11.65" endPos="26.65" friendlyPos="true" lines="146E 342F G6 V342F"/>
    <busStop id="1698055294" name="Halasuru" lane="638541497#20_0" startPos="10.06" endPos="25.06" friendlyPos="true" lines="K4"/>
    <busStop id="1739362330" name="Town Hall" lane="310910082_0" startPos="22.97" endPos="37.97" friendlyPos="true" lines="293E 286A 111 293C 292 K4 G6"/>
    <busStop id="1837395715" name="Wilson Garden 14th cross" lane="323458349#2_0" startPos="31.63" endPos="56.63" friendlyPos="true"/>
    <busStop id="1837445442" name="MG Road Parade Ground" lane="4354953#7_0" startPos="452.58" endPos="477.58" friendlyPos="true"/>
    <busStop id="1837716576" name="National College" lane="461209416_0" startPos="0.19" endPos="25.19" friendlyPos="true"/>
    <busStop id="1837716632" name="Makkala Koota" lane="172937188#2_0" startPos="20.36" endPos="45.36" friendlyPos="true"/>
    <busStop id="1837783485" name="Electric B Station" lane="172947338#1_0" startPos="19.30" endPos="34.30" friendlyPos="true"/>
    <busStop id="2007574677" name="KR Market" lane="190144809#0_0" startPos="0.00" endPos="7.50" friendlyPos="true" lines="55B 1"/>
    <busStop id="2268440721" name="Dickenson Road" lane="72099282_0" startPos="60.68" endPos="75.68" friendlyPos="true" lines="169"/>
    <busStop id="2393689534" name="S J Polytechnic College" lane="150785556#3_0" startPos="3.26" endPos="28.26" friendlyPos="true"/>
    <busStop id="2393689586" name="S J Polytechnic College" lane="764332431_0" startPos="181.11" endPos="206.11" friendlyPos="true"/>
    <busStop id="2393695722" name="Corporation Circle" lane="148016866#1_0" startPos="8.71" endPos="23.71" friendlyPos="true" lines="146E KBS3A 52"/>
    <busStop id="2393696810" name="Town Hall" lane="36897679_0" startPos="11.96" endPos="36.96" friendlyPos="true"/>
    <busStop id="2393859187" name="Chamarajapet" lane="162697329#0_0" startPos="45.37" endPos="60.37" friendlyPos="true" lines="1 TR12"/>
    <busStop id="2393966201" name="Binny Mill , Goodshed Road Gate" lane="36897689#7_0" startPos="118.20" endPos="133.20" friendlyPos="true" lines="1"/>
    <busStop id="2393966538" name="Cottonpet Hospital Super Talkies" lane="36897685#0_0" startPos="9.47" endPos="24.47" friendlyPos="true" lines="226J 218A 218 220D 201M 234E 227C 227A 227N"/>
    <busStop id="2393969380" name="Vinayaka Talkies" lane="36897685#7_0" startPos="7.58" endPos="22.58" friendlyPos="true"/>
    <busStop id="2393971138" name="Chamarajapete,In Front Of Manapuram Gold" lane="555368897#0_0" startPos="11.69" endPos="36.69" friendlyPos="true"/>
    <busStop id="2393971549" name="Bengaluru High School" lane="555368896#2_0" startPos="31.07" endPos="46.07" friendlyPos="true" lines="1 TR12"/>
    <busStop id="2393971633" name="Ramakrishna Ashrama" lane="555368896#0_0" startPos="40.21" endPos="55.21" friendlyPos="true" lines="1 TR12"/>
    <busStop id="2393971760" name="Gandhi Bazar , North Road, Basavanagudi" lane="40629060#3_0" startPos="11.39" endPos="36.39" friendlyPos="true"/>
    <busStop id="2394020398" name="Rv Teachers College,Basavanagudi" lane="23053764#4_0" startPos="341.06" endPos="366.06" friendlyPos="true"/>
    <busStop id="2394026707" name="Vijaya College, Basavanagudi" lane="23053764#5_0" startPos="405.56" endPos="430.56" friendlyPos="true"/>
    <busStop id="2394039396" name="Minarva Circle, Rashtriya Vidyalaya Road" lane="23054647#4_0" startPos="31.96" endPos="46.96" friendlyPos="true" lines="TR7 37E 34B"/>
    <busStop id="2394042060" name="Corporation" lane="23076927#1_0" startPos="0.00" endPos="14.81" friendlyPos="true" lines="286A 111 293C KBS3A 342F V342F"/>
    <busStop id="2394043250" name="Cauvery Bhavana" lane="38684971#0_0" startPos="69.81" endPos="84.81" friendlyPos="true" lines="111"/>
    <busStop id="2394101410" name="Poornima Talkies" lane="152582846#0_0" startPos="0.00" endPos="21.88" friendlyPos="true"/>
    <busStop id="2394630008" name="Lalbagh West Gate, V V Puram" lane="23054647#0_0" startPos="0.00" endPos="7.50" friendlyPos="true" lines="TR7 37E 34B"/>
    <busStop id="2396240347" name="Ramakrishna Ashrama" lane="142487542_0" startPos="0.00" endPos="24.89" friendlyPos="true"/>
    <busStop id="2396303951" name="Hanumantha Nagara Syndicate Bank" lane="491480310#0_0" startPos="22.45" endPos="37.45" friendlyPos="true" lines="TR12"/>
    <busStop id="2396418664" name="Elgin Floor Mill,Langford Town" lane="239441160#4_0" startPos="25.88" endPos="50.88" friendlyPos="true"/>
    <busStop id="2396420234" name="St Patrick&apos;s Church" lane="763290548#2_0" startPos="25.54" endPos="40.54" friendlyPos="true"/>
    <busStop id="2396422787" name="Halasur Police Station" lane="638541497#11_0" startPos="45.07" endPos="66.91" friendlyPos="true"/>
    <busStop id="2396424444" name="Halasur" lane="126774193#1_0" startPos="62.40" endPos="87.40" friendlyPos="true"/>
    <busStop id="2396425548" name="Lakshmipura Ulsoor" lane="126774193#8_0" startPos="43.48" endPos="58.48" friendlyPos="true" lines="K4"/>
    <busStop id="2396447784" name="Shanthinagara Bus Stop KH Road" lane="638928394_0" startPos="90.05" endPos="105.05" friendlyPos="true" lines="190"/>
    <busStop id="2396447785" name="Shanthinagara Bus Stop KH Road" lane="553447543_0" startPos="114.77" endPos="129.77" friendlyPos="true" lines="TR7 MBS14 34B"/>
    <busStop id="2396890413" name="Lalbagh Main Gate" lane="23078145#0_0" startPos="550.74" endPos="565.74" friendlyPos="true" lines="190"/>
    <busStop id="2396890811" name="KH Road, Double Road" lane="375964867#2_0" startPos="16.57" endPos="31.57" friendlyPos="true" lines="KBS3A 342F V342F TR7 MBS14 37E 34B 13F 13B"/>
    <busStop id="2396896338" name="Police Housing Corporation" lane="36853688#2_0" startPos="117.35" endPos="142.35" friendlyPos="true"/>
    <busStop id="2396896553" name="Lifestyle" lane="133632534#6_0" startPos="42.34" endPos="57.34" friendlyPos="true" lines="190 144E 144"/>
    <busStop id="2397087882" name="Anil Kumble Circle" lane="323813903#2_0" startPos="91.46" endPos="106.46" friendlyPos="true" lines="MBS14 144K 37E 34B 141E 13F 13B"/>
    <busStop id="2398074914" name="Kempegowda Bus Station" lane="31235676_0" startPos="115.14" endPos="120.32" friendlyPos="true" lines="276 78A"/>
    <busStop id="2398074914@5598563" name="Kempegowda Bus Station" lane="580772059_0" startPos="0.00" endPos="8.77" friendlyPos="true" lines="90E"/>
    <busStop id="2398074914@6856311" name="Kempegowda Bus Station" lane="372018370#0_0" startPos="447.57" endPos="462.57" friendlyPos="true" lines="252F"/>
    <busStop id="2398094147" name="Khodays Circle" lane="372018380_0" startPos="14.22" endPos="29.22" friendlyPos="true" lines="52"/>
    <busStop id="2398101219" name="Basappa Circle" lane="38042634#4_0" startPos="5.72" endPos="30.72" friendlyPos="true"/>
    <busStop id="2401259157" name="Manipal Center" lane="542070643#1_0" startPos="439.00" endPos="464.00" friendlyPos="true"/>
    <busStop id="2401263650" name="Command Hospital" lane="638531682#2_0" startPos="228.08" endPos="243.08" friendlyPos="true" lines="333"/>
    <busStop id="2401307621" name="Manipal Center" lane="464465211#2_0" startPos="38.49" endPos="63.49" friendlyPos="true"/>
    <busStop id="2401658294" name="Lakshmipura Ulsoor" lane="464465186#7_0" startPos="0.00" endPos="13.34" friendlyPos="true" lines="190 K1 197"/>
    <busStop id="2401658592" name="Halasuru" lane="464465205#1_0" startPos="51.52" endPos="66.52" friendlyPos="true" lines="190 K1 197"/>
    <busStop id="2402160774" name="Royan Circle" lane="525778226#2_0" startPos="128.41" endPos="143.41" friendlyPos="true" lines="226M 226J 218A 218 220D 201M 234E 227C 227A 227N"/>
    <busStop id="2405357303" name="Maniksha Parade Ground" lane="544761380#0_0" startPos="63.34" endPos="78.34" friendlyPos="true" lines="K1 197"/>
    <busStop id="2406087671" name="ASC Center" lane="401908499#0_0" startPos="0.00" endPos="14.15" friendlyPos="true" lines="146E G2"/>
    <busStop id="2406088640" name="Philomenas Hospital" lane="401993919#1_0" startPos="317.58" endPos="332.58" friendlyPos="true" lines="140 144K 141E"/>
    <busStop id="2406090831" name="Subbaiah Circle" lane="132191814#5_0" startPos="34.77" endPos="59.77" friendlyPos="true"/>
    <busStop id="2406093010" name="Poornima Talkies" lane="182196323#0_0" startPos="52.81" endPos="67.81" friendlyPos="true" lines="140"/>
    <busStop id="2406115674" name="Vannarapete" lane="763175333#1_0" startPos="16.13" endPos="31.13" friendlyPos="true" lines="146E G2"/>
    <busStop id="2406538301" name="Neelasandra Bus Stand" lane="763293417#1_0" startPos="7.49" endPos="15.00" friendlyPos="true" lines="144E 144"/>
    <busStop id="246396993" name="Bangalore City Junction" lane="101835462#1_0" startPos="87.92" endPos="287.92" friendlyPos="true">
        <access lane="150216122_0" pos="0.00" length="94.38" friendlyPos="1"/>
        <access lane="31235686#2_0" pos="13.44" length="94.24" friendlyPos="1"/>
        <access lane="31235686#3_0" pos="0.20" length="90.70" friendlyPos="1"/>
        <access lane="31235686#4_0" pos="13.64" length="86.52" friendlyPos="1"/>
        <access lane="53861849#1_0" pos="16.02" length="94.91" friendlyPos="1"/>
    </busStop>
    <busStop id="2468903219" name="Mallya Hospital" lane="36851759#0_0" startPos="193.45" endPos="208.45" friendlyPos="true" lines="333 K4 K6 37 368 34 27N 27A 27 234F 215U 210FA 182 166 161D 161B 15K 155 154 13S 13K 13J 13H 13E 13D 13C 13A 13 210Q 210G"/>
    <busStop id="247991562" name="Anepalya" lane="28842920#4_0" startPos="0.00" endPos="19.96" friendlyPos="true"/>
    <busStop id="248838952" name="Kohinoor Ground" lane="23060963#4_0" startPos="2.47" endPos="17.47" friendlyPos="true" lines="TR12"/>
    <busStop id="249082241" name="Naga Talkies" lane="36970818#1_0" startPos="366.80" endPos="391.80" friendlyPos="true"/>
    <busStop id="249084526" name="Magadi Road 1st Cross" lane="170931909#0_0" startPos="1229.94" endPos="1244.94" friendlyPos="true"/>
    <busStop id="249087970" name="Mysore Bank" lane="23076927#5_0" startPos="202.48" endPos="217.48" friendlyPos="true" lines="286A 111 293C KBS3A 342F V342F"/>
    <busStop id="249141343" name="Sajjan Rao Circle" lane="38042634#0_0" startPos="15.52" endPos="40.52" friendlyPos="true"/>
    <busStop id="251146210" name="Military Accounts Office" lane="638531682#0_0" startPos="22.53" endPos="37.53" friendlyPos="true"/>
    <busStop id="253890237" name="Trinity Circle" lane="638531680#1_0" startPos="421.36" endPos="436.36" friendlyPos="true" lines="G2"/>
    <busStop id="2577090341" lane="362206700#3_0" startPos="55.58" endPos="80.58" friendlyPos="true"/>
    <busStop id="2723747022" name="Mallige Hospital Siddapura" lane="130989093#0_0" startPos="93.97" endPos="118.97" friendlyPos="true"/>
    <busStop id="287905435" name="Hasanath College" lane="484510041#5_0" startPos="38.98" endPos="53.98" friendlyPos="true" lines="K1 197"/>
    <busStop id="2949043344" name="Lido Talkies" lane="464465205#10_0" startPos="92.21" endPos="107.21" friendlyPos="true" lines="190 K1 197"/>
    <busStop id="296030070" name="Hosmat Hospital" lane="27007398#4_0" startPos="88.60" endPos="103.60" friendlyPos="true" lines="333"/>
    <busStop id="3170033034" name="Halasuru" lane="464465205#1_0" startPos="61.16" endPos="76.16" friendlyPos="true"/>
    <busStop id="3304155383" name="Dickenson Road" lane="72099280#3_0" startPos="38.01" endPos="53.01" friendlyPos="true" lines="K1 197"/>
    <busStop id="3344494904" name="Mayo Hall" lane="124316745#8_0" startPos="16.86" endPos="31.86" friendlyPos="true" lines="333 K4 144K 141E"/>
    <busStop id="3356616803" name="Corporation, Mission Road (Towards Subbiah Circle)" lane="328836686_0" startPos="49.79" endPos="64.79" friendlyPos="true" lines="146E"/>
    <busStop id="3356616803@8858789" name="Corporation, Mission Road (Towards Subbiah Circle)" lane="764329021_0" startPos="43.06" endPos="58.06" friendlyPos="true" lines="342F G6 V342F"/>
    <busStop id="3356616804" name="Richmond Circle" lane="766406228#1_0" startPos="12.25" endPos="27.25" friendlyPos="true" lines="333 K4"/>
    <busStop id="3356616804@9740026" name="Richmond Circle" lane="208698150_0" startPos="88.02" endPos="103.02" friendlyPos="true" lines="TR7 MBS14 37E 34B 13F 13B"/>
    <busStop id="3406880176" name="Vellara Junction" lane="239441161#0_0" startPos="47.99" endPos="62.99" friendlyPos="true" lines="G4"/>
    <busStop id="3476877517" name="Hosmat Hospital" lane="327550407#4_0" startPos="117.26" endPos="132.26" friendlyPos="true" lines="190"/>
    <busStop id="3730961538" name="MG Road" lane="263812623#0_0" startPos="130.31" endPos="145.31" friendlyPos="true" lines="K4"/>